<?xml version="1.0" encoding="UTF-8"?>

<!-- generated on 2025-04-14 18:49:44.935657 by randomTrips.py UNKNOWN
<configuration>
    <net-file value="highway.net.xml"/>
    <output-trip-file value="bus.trips.xml"/>
    <route-file value="output.trips2.xml"/>
    <prefix value="bus"/>
    <trip-attributes value="departLane=&quot;best&quot; departSpeed=&quot;5&quot; "/>
    <lanes value="True"/>
    <fringe-factor value="100000"/>
    <seed value="30"/>
    <min-distance value="10.0"/>
    <max-distance value="500000.0"/>
    <validate value="True"/>
    <end value="854.0"/>
    <period value="1.4"/>
</configuration>
-->

<!-- generated on 2025-04-14 18:49:44 by Eclipse SUMO duarouter Version 1.19.0
<configuration xmlns:xsi="http://www.w3.org/2001/XMLSchema-instance" xsi:noNamespaceSchemaLocation="http://sumo.dlr.de/xsd/duarouterConfiguration.xsd">

    <input>
        <net-file value="highway.net.xml"/>
        <route-files value="bus.trips.xml"/>
    </input>

    <output>
        <output-file value="bus.trips.xml.tmp"/>
        <alternatives-output value="NUL"/>
        <write-trips value="true"/>
    </output>

    <time>
        <begin value="0"/>
        <end value="854.0"/>
    </time>

    <report>
        <no-warnings value="true"/>
        <ignore-errors value="true"/>
        <no-step-log value="true"/>
    </report>

</configuration>
-->

<routes xmlns:xsi="http://www.w3.org/2001/XMLSchema-instance" xsi:noNamespaceSchemaLocation="http://sumo.dlr.de/xsd/routes_file.xsd">
    <trip id="bus0" type="bus0" depart="0.00" departLane="best" departSpeed="5.00" from="E0" to="E1"/>
    <trip id="bus1" type="bus1" depart="1.40" departLane="best" departSpeed="5.00" from="E0" to="E1"/>
    <trip id="bus2" type="bus2" depart="2.80" departLane="best" departSpeed="5.00" from="E0" to="E1"/>
    <trip id="bus3" type="bus3" depart="4.20" departLane="best" departSpeed="5.00" from="E0" to="E1"/>
    <trip id="bus4" type="bus4" depart="5.60" departLane="best" departSpeed="5.00" from="E0" to="E1"/>
    <trip id="bus5" type="bus5" depart="7.00" departLane="best" departSpeed="5.00" from="E0" to="E1"/>
    <trip id="bus6" type="bus6" depart="8.40" departLane="best" departSpeed="5.00" from="E0" to="E1"/>
    <trip id="bus7" type="bus7" depart="9.80" departLane="best" departSpeed="5.00" from="E0" to="E1"/>
    <trip id="bus8" type="bus8" depart="11.20" departLane="best" departSpeed="5.00" from="E0" to="E1"/>
    <trip id="bus9" type="bus9" depart="12.60" departLane="best" departSpeed="5.00" from="E0" to="E1"/>
    <trip id="bus10" type="bus10" depart="14.00" departLane="best" departSpeed="5.00" from="E0" to="E1"/>
    <trip id="bus11" type="bus11" depart="15.40" departLane="best" departSpeed="5.00" from="E0" to="E1"/>
    <trip id="bus12" type="bus12" depart="16.80" departLane="best" departSpeed="5.00" from="E0" to="E1"/>
    <trip id="bus13" type="bus13" depart="18.20" departLane="best" departSpeed="5.00" from="E0" to="E1"/>
    <trip id="bus14" type="bus14" depart="19.60" departLane="best" departSpeed="5.00" from="E0" to="E1"/>
    <trip id="bus15" type="bus15" depart="21.00" departLane="best" departSpeed="5.00" from="E0" to="E1"/>
    <trip id="bus16" type="bus16" depart="22.40" departLane="best" departSpeed="5.00" from="E0" to="E1"/>
    <trip id="bus17" type="bus17" depart="23.80" departLane="best" departSpeed="5.00" from="E0" to="E1"/>
    <trip id="bus18" type="bus18" depart="25.20" departLane="best" departSpeed="5.00" from="E0" to="E1"/>
    <trip id="bus19" type="bus19" depart="26.60" departLane="best" departSpeed="5.00" from="E0" to="E1"/>
    <trip id="bus20" type="bus20" depart="28.00" departLane="best" departSpeed="5.00" from="E0" to="E1"/>
    <trip id="bus21" type="bus21" depart="29.40" departLane="best" departSpeed="5.00" from="E0" to="E1"/>
    <trip id="bus22" type="bus22" depart="30.80" departLane="best" departSpeed="5.00" from="E0" to="E1"/>
    <trip id="bus23" type="bus23" depart="32.20" departLane="best" departSpeed="5.00" from="E0" to="E1"/>
    <trip id="bus24" type="bus24" depart="33.60" departLane="best" departSpeed="5.00" from="E0" to="E1"/>
    <trip id="bus25" type="bus25" depart="35.00" departLane="best" departSpeed="5.00" from="E0" to="E1"/>
    <trip id="bus26" type="bus26" depart="36.40" departLane="best" departSpeed="5.00" from="E0" to="E1"/>
    <trip id="bus27" type="bus27" depart="37.80" departLane="best" departSpeed="5.00" from="E0" to="E1"/>
    <trip id="bus28" type="bus28" depart="39.20" departLane="best" departSpeed="5.00" from="E0" to="E1"/>
    <trip id="bus29" type="bus29" depart="40.60" departLane="best" departSpeed="5.00" from="E0" to="E1"/>
    <trip id="bus30" type="bus30" depart="42.00" departLane="best" departSpeed="5.00" from="E0" to="E1"/>
    <trip id="bus31" type="bus31" depart="43.40" departLane="best" departSpeed="5.00" from="E0" to="E1"/>
    <trip id="bus32" type="bus32" depart="44.80" departLane="best" departSpeed="5.00" from="E0" to="E1"/>
    <trip id="bus33" type="bus33" depart="46.20" departLane="best" departSpeed="5.00" from="E0" to="E1"/>
    <trip id="bus34" type="bus34" depart="47.60" departLane="best" departSpeed="5.00" from="E0" to="E1"/>
    <trip id="bus35" type="bus35" depart="49.00" departLane="best" departSpeed="5.00" from="E0" to="E1"/>
    <trip id="bus36" type="bus36" depart="50.40" departLane="best" departSpeed="5.00" from="E0" to="E1"/>
    <trip id="bus37" type="bus37" depart="51.80" departLane="best" departSpeed="5.00" from="E0" to="E1"/>
    <trip id="bus38" type="bus38" depart="53.20" departLane="best" departSpeed="5.00" from="E0" to="E1"/>
    <trip id="bus39" type="bus39" depart="54.60" departLane="best" departSpeed="5.00" from="E0" to="E1"/>
    <trip id="bus40" type="bus40" depart="56.00" departLane="best" departSpeed="5.00" from="E0" to="E1"/>
    <trip id="bus41" type="bus41" depart="57.40" departLane="best" departSpeed="5.00" from="E0" to="E1"/>
    <trip id="bus42" type="bus42" depart="58.80" departLane="best" departSpeed="5.00" from="E0" to="E1"/>
    <trip id="bus43" type="bus43" depart="60.20" departLane="best" departSpeed="5.00" from="E0" to="E1"/>
    <trip id="bus44" type="bus44" depart="61.60" departLane="best" departSpeed="5.00" from="E0" to="E1"/>
    <trip id="bus45" type="bus45" depart="63.00" departLane="best" departSpeed="5.00" from="E0" to="E1"/>
    <trip id="bus46" type="bus46" depart="64.40" departLane="best" departSpeed="5.00" from="E0" to="E1"/>
    <trip id="bus47" type="bus47" depart="65.80" departLane="best" departSpeed="5.00" from="E0" to="E1"/>
    <trip id="bus48" type="bus48" depart="67.20" departLane="best" departSpeed="5.00" from="E0" to="E1"/>
    <trip id="bus49" type="bus49" depart="68.60" departLane="best" departSpeed="5.00" from="E0" to="E1"/>
    <trip id="bus50" type="bus50" depart="70.00" departLane="best" departSpeed="5.00" from="E0" to="E1"/>
    <trip id="bus51" type="bus51" depart="71.40" departLane="best" departSpeed="5.00" from="E0" to="E1"/>
    <trip id="bus52" type="bus52" depart="72.80" departLane="best" departSpeed="5.00" from="E0" to="E1"/>
    <trip id="bus53" type="bus53" depart="74.20" departLane="best" departSpeed="5.00" from="E0" to="E1"/>
    <trip id="bus54" type="bus54" depart="75.60" departLane="best" departSpeed="5.00" from="E0" to="E1"/>
    <trip id="bus55" type="bus55" depart="77.00" departLane="best" departSpeed="5.00" from="E0" to="E1"/>
    <trip id="bus56" type="bus56" depart="78.40" departLane="best" departSpeed="5.00" from="E0" to="E1"/>
    <trip id="bus57" type="bus57" depart="79.80" departLane="best" departSpeed="5.00" from="E0" to="E1"/>
    <trip id="bus58" type="bus58" depart="81.20" departLane="best" departSpeed="5.00" from="E0" to="E1"/>
    <trip id="bus59" type="bus59" depart="82.60" departLane="best" departSpeed="5.00" from="E0" to="E1"/>
    <trip id="bus60" type="bus60" depart="84.00" departLane="best" departSpeed="5.00" from="E0" to="E1"/>
    <trip id="bus61" type="bus61" depart="85.40" departLane="best" departSpeed="5.00" from="E0" to="E1"/>
    <trip id="bus62" type="bus62" depart="86.80" departLane="best" departSpeed="5.00" from="E0" to="E1"/>
    <trip id="bus63" type="bus63" depart="88.20" departLane="best" departSpeed="5.00" from="E0" to="E1"/>
    <trip id="bus64" type="bus64" depart="89.60" departLane="best" departSpeed="5.00" from="E0" to="E1"/>
    <trip id="bus65" type="bus65" depart="91.00" departLane="best" departSpeed="5.00" from="E0" to="E1"/>
    <trip id="bus66" type="bus66" depart="92.40" departLane="best" departSpeed="5.00" from="E0" to="E1"/>
    <trip id="bus67" type="bus67" depart="93.80" departLane="best" departSpeed="5.00" from="E0" to="E1"/>
    <trip id="bus68" type="bus68" depart="95.20" departLane="best" departSpeed="5.00" from="E0" to="E1"/>
    <trip id="bus69" type="bus69" depart="96.60" departLane="best" departSpeed="5.00" from="E0" to="E1"/>
    <trip id="bus70" type="bus70" depart="98.00" departLane="best" departSpeed="5.00" from="E0" to="E1"/>
    <trip id="bus71" type="bus71" depart="99.40" departLane="best" departSpeed="5.00" from="E0" to="E1"/>
    <trip id="bus72" type="bus72" depart="100.80" departLane="best" departSpeed="5.00" from="E0" to="E1"/>
    <trip id="bus73" type="bus73" depart="102.20" departLane="best" departSpeed="5.00" from="E0" to="E1"/>
    <trip id="bus74" type="bus74" depart="103.60" departLane="best" departSpeed="5.00" from="E0" to="E1"/>
    <trip id="bus75" type="bus75" depart="105.00" departLane="best" departSpeed="5.00" from="E0" to="E1"/>
    <trip id="bus76" type="bus76" depart="106.40" departLane="best" departSpeed="5.00" from="E0" to="E1"/>
    <trip id="bus77" type="bus77" depart="107.80" departLane="best" departSpeed="5.00" from="E0" to="E1"/>
    <trip id="bus78" type="bus78" depart="109.20" departLane="best" departSpeed="5.00" from="E0" to="E1"/>
    <trip id="bus79" type="bus79" depart="110.60" departLane="best" departSpeed="5.00" from="E0" to="E1"/>
    <trip id="bus80" type="bus80" depart="112.00" departLane="best" departSpeed="5.00" from="E0" to="E1"/>
    <trip id="bus81" type="bus81" depart="113.40" departLane="best" departSpeed="5.00" from="E0" to="E1"/>
    <trip id="bus82" type="bus82" depart="114.80" departLane="best" departSpeed="5.00" from="E0" to="E1"/>
    <trip id="bus83" type="bus83" depart="116.20" departLane="best" departSpeed="5.00" from="E0" to="E1"/>
    <trip id="bus84" type="bus84" depart="117.60" departLane="best" departSpeed="5.00" from="E0" to="E1"/>
    <trip id="bus85" type="bus85" depart="119.00" departLane="best" departSpeed="5.00" from="E0" to="E1"/>
    <trip id="bus86" type="bus86" depart="120.40" departLane="best" departSpeed="5.00" from="E0" to="E1"/>
    <trip id="bus87" type="bus87" depart="121.80" departLane="best" departSpeed="5.00" from="E0" to="E1"/>
    <trip id="bus88" type="bus88" depart="123.20" departLane="best" departSpeed="5.00" from="E0" to="E1"/>
    <trip id="bus89" type="bus89" depart="124.60" departLane="best" departSpeed="5.00" from="E0" to="E1"/>
    <trip id="bus90" type="bus90" depart="126.00" departLane="best" departSpeed="5.00" from="E0" to="E1"/>
    <trip id="bus91" type="bus91" depart="127.40" departLane="best" departSpeed="5.00" from="E0" to="E1"/>
    <trip id="bus92" type="bus92" depart="128.80" departLane="best" departSpeed="5.00" from="E0" to="E1"/>
    <trip id="bus93" type="bus93" depart="130.20" departLane="best" departSpeed="5.00" from="E0" to="E1"/>
    <trip id="bus94" type="bus94" depart="131.60" departLane="best" departSpeed="5.00" from="E0" to="E1"/>
    <trip id="bus95" type="bus95" depart="133.00" departLane="best" departSpeed="5.00" from="E0" to="E1"/>
    <trip id="bus96" type="bus96" depart="134.40" departLane="best" departSpeed="5.00" from="E0" to="E1"/>
    <trip id="bus97" type="bus97" depart="135.80" departLane="best" departSpeed="5.00" from="E0" to="E1"/>
    <trip id="bus98" type="bus98" depart="137.20" departLane="best" departSpeed="5.00" from="E0" to="E1"/>
    <trip id="bus99" type="bus99" depart="138.60" departLane="best" departSpeed="5.00" from="E0" to="E1"/>
    <trip id="bus100" type="bus100" depart="140.00" departLane="best" departSpeed="5.00" from="E0" to="E1"/>
    <trip id="bus101" type="bus101" depart="141.40" departLane="best" departSpeed="5.00" from="E0" to="E1"/>
    <trip id="bus102" type="bus102" depart="142.80" departLane="best" departSpeed="5.00" from="E0" to="E1"/>
    <trip id="bus103" type="bus103" depart="144.20" departLane="best" departSpeed="5.00" from="E0" to="E1"/>
    <trip id="bus104" type="bus104" depart="145.60" departLane="best" departSpeed="5.00" from="E0" to="E1"/>
    <trip id="bus105" type="bus105" depart="147.00" departLane="best" departSpeed="5.00" from="E0" to="E1"/>
    <trip id="bus106" type="bus106" depart="148.40" departLane="best" departSpeed="5.00" from="E0" to="E1"/>
    <trip id="bus107" type="bus107" depart="149.80" departLane="best" departSpeed="5.00" from="E0" to="E1"/>
    <trip id="bus108" type="bus108" depart="151.20" departLane="best" departSpeed="5.00" from="E0" to="E1"/>
    <trip id="bus109" type="bus109" depart="152.60" departLane="best" departSpeed="5.00" from="E0" to="E1"/>
    <trip id="bus110" type="bus110" depart="154.00" departLane="best" departSpeed="5.00" from="E0" to="E1"/>
    <trip id="bus111" type="bus111" depart="155.40" departLane="best" departSpeed="5.00" from="E0" to="E1"/>
    <trip id="bus112" type="bus112" depart="156.80" departLane="best" departSpeed="5.00" from="E0" to="E1"/>
    <trip id="bus113" type="bus113" depart="158.20" departLane="best" departSpeed="5.00" from="E0" to="E1"/>
    <trip id="bus114" type="bus114" depart="159.60" departLane="best" departSpeed="5.00" from="E0" to="E1"/>
    <trip id="bus115" type="bus115" depart="161.00" departLane="best" departSpeed="5.00" from="E0" to="E1"/>
    <trip id="bus116" type="bus116" depart="162.40" departLane="best" departSpeed="5.00" from="E0" to="E1"/>
    <trip id="bus117" type="bus117" depart="163.80" departLane="best" departSpeed="5.00" from="E0" to="E1"/>
    <trip id="bus118" type="bus118" depart="165.20" departLane="best" departSpeed="5.00" from="E0" to="E1"/>
    <trip id="bus119" type="bus119" depart="166.60" departLane="best" departSpeed="5.00" from="E0" to="E1"/>
    <trip id="bus120" type="bus120" depart="168.00" departLane="best" departSpeed="5.00" from="E0" to="E1"/>
    <trip id="bus121" type="bus121" depart="169.40" departLane="best" departSpeed="5.00" from="E0" to="E1"/>
    <trip id="bus122" type="bus122" depart="170.80" departLane="best" departSpeed="5.00" from="E0" to="E1"/>
    <trip id="bus123" type="bus123" depart="172.20" departLane="best" departSpeed="5.00" from="E0" to="E1"/>
    <trip id="bus124" type="bus124" depart="173.60" departLane="best" departSpeed="5.00" from="E0" to="E1"/>
    <trip id="bus125" type="bus125" depart="175.00" departLane="best" departSpeed="5.00" from="E0" to="E1"/>
    <trip id="bus126" type="bus126" depart="176.40" departLane="best" departSpeed="5.00" from="E0" to="E1"/>
    <trip id="bus127" type="bus127" depart="177.80" departLane="best" departSpeed="5.00" from="E0" to="E1"/>
    <trip id="bus128" type="bus128" depart="179.20" departLane="best" departSpeed="5.00" from="E0" to="E1"/>
    <trip id="bus129" type="bus129" depart="180.60" departLane="best" departSpeed="5.00" from="E0" to="E1"/>
    <trip id="bus130" type="bus130" depart="182.00" departLane="best" departSpeed="5.00" from="E0" to="E1"/>
    <trip id="bus131" type="bus131" depart="183.40" departLane="best" departSpeed="5.00" from="E0" to="E1"/>
    <trip id="bus132" type="bus132" depart="184.80" departLane="best" departSpeed="5.00" from="E0" to="E1"/>
    <trip id="bus133" type="bus133" depart="186.20" departLane="best" departSpeed="5.00" from="E0" to="E1"/>
    <trip id="bus134" type="bus134" depart="187.60" departLane="best" departSpeed="5.00" from="E0" to="E1"/>
    <trip id="bus135" type="bus135" depart="189.00" departLane="best" departSpeed="5.00" from="E0" to="E1"/>
    <trip id="bus136" type="bus136" depart="190.40" departLane="best" departSpeed="5.00" from="E0" to="E1"/>
    <trip id="bus137" type="bus137" depart="191.80" departLane="best" departSpeed="5.00" from="E0" to="E1"/>
    <trip id="bus138" type="bus138" depart="193.20" departLane="best" departSpeed="5.00" from="E0" to="E1"/>
    <trip id="bus139" type="bus139" depart="194.60" departLane="best" departSpeed="5.00" from="E0" to="E1"/>
    <trip id="bus140" type="bus140" depart="196.00" departLane="best" departSpeed="5.00" from="E0" to="E1"/>
    <trip id="bus141" type="bus141" depart="197.40" departLane="best" departSpeed="5.00" from="E0" to="E1"/>
    <trip id="bus142" type="bus142" depart="198.80" departLane="best" departSpeed="5.00" from="E0" to="E1"/>
    <trip id="bus143" type="bus143" depart="200.20" departLane="best" departSpeed="5.00" from="E0" to="E1"/>
    <trip id="bus144" type="bus144" depart="201.60" departLane="best" departSpeed="5.00" from="E0" to="E1"/>
    <trip id="bus145" type="bus145" depart="203.00" departLane="best" departSpeed="5.00" from="E0" to="E1"/>
    <trip id="bus146" type="bus146" depart="204.40" departLane="best" departSpeed="5.00" from="E0" to="E1"/>
    <trip id="bus147" type="bus147" depart="205.80" departLane="best" departSpeed="5.00" from="E0" to="E1"/>
    <trip id="bus148" type="bus148" depart="207.20" departLane="best" departSpeed="5.00" from="E0" to="E1"/>
    <trip id="bus149" type="bus149" depart="208.60" departLane="best" departSpeed="5.00" from="E0" to="E1"/>
    <trip id="bus150" type="bus150" depart="210.00" departLane="best" departSpeed="5.00" from="E0" to="E1"/>
    <trip id="bus151" type="bus151" depart="211.40" departLane="best" departSpeed="5.00" from="E0" to="E1"/>
    <trip id="bus152" type="bus152" depart="212.80" departLane="best" departSpeed="5.00" from="E0" to="E1"/>
    <trip id="bus153" type="bus153" depart="214.20" departLane="best" departSpeed="5.00" from="E0" to="E1"/>
    <trip id="bus154" type="bus154" depart="215.60" departLane="best" departSpeed="5.00" from="E0" to="E1"/>
    <trip id="bus155" type="bus155" depart="217.00" departLane="best" departSpeed="5.00" from="E0" to="E1"/>
    <trip id="bus156" type="bus156" depart="218.40" departLane="best" departSpeed="5.00" from="E0" to="E1"/>
    <trip id="bus157" type="bus157" depart="219.80" departLane="best" departSpeed="5.00" from="E0" to="E1"/>
    <trip id="bus158" type="bus158" depart="221.20" departLane="best" departSpeed="5.00" from="E0" to="E1"/>
    <trip id="bus159" type="bus159" depart="222.60" departLane="best" departSpeed="5.00" from="E0" to="E1"/>
    <trip id="bus160" type="bus160" depart="224.00" departLane="best" departSpeed="5.00" from="E0" to="E1"/>
    <trip id="bus161" type="bus161" depart="225.40" departLane="best" departSpeed="5.00" from="E0" to="E1"/>
    <trip id="bus162" type="bus162" depart="226.80" departLane="best" departSpeed="5.00" from="E0" to="E1"/>
    <trip id="bus163" type="bus163" depart="228.20" departLane="best" departSpeed="5.00" from="E0" to="E1"/>
    <trip id="bus164" type="bus164" depart="229.60" departLane="best" departSpeed="5.00" from="E0" to="E1"/>
    <trip id="bus165" type="bus165" depart="231.00" departLane="best" departSpeed="5.00" from="E0" to="E1"/>
    <trip id="bus166" type="bus166" depart="232.40" departLane="best" departSpeed="5.00" from="E0" to="E1"/>
    <trip id="bus167" type="bus167" depart="233.80" departLane="best" departSpeed="5.00" from="E0" to="E1"/>
    <trip id="bus168" type="bus168" depart="235.20" departLane="best" departSpeed="5.00" from="E0" to="E1"/>
    <trip id="bus169" type="bus169" depart="236.60" departLane="best" departSpeed="5.00" from="E0" to="E1"/>
    <trip id="bus170" type="bus170" depart="238.00" departLane="best" departSpeed="5.00" from="E0" to="E1"/>
    <trip id="bus171" type="bus171" depart="239.40" departLane="best" departSpeed="5.00" from="E0" to="E1"/>
    <trip id="bus172" type="bus172" depart="240.80" departLane="best" departSpeed="5.00" from="E0" to="E1"/>
    <trip id="bus173" type="bus173" depart="242.20" departLane="best" departSpeed="5.00" from="E0" to="E1"/>
    <trip id="bus174" type="bus174" depart="243.60" departLane="best" departSpeed="5.00" from="E0" to="E1"/>
    <trip id="bus175" type="bus175" depart="245.00" departLane="best" departSpeed="5.00" from="E0" to="E1"/>
    <trip id="bus176" type="bus176" depart="246.40" departLane="best" departSpeed="5.00" from="E0" to="E1"/>
    <trip id="bus177" type="bus177" depart="247.80" departLane="best" departSpeed="5.00" from="E0" to="E1"/>
    <trip id="bus178" type="bus178" depart="249.20" departLane="best" departSpeed="5.00" from="E0" to="E1"/>
    <trip id="bus179" type="bus179" depart="250.60" departLane="best" departSpeed="5.00" from="E0" to="E1"/>
    <trip id="bus180" type="bus180" depart="252.00" departLane="best" departSpeed="5.00" from="E0" to="E1"/>
    <trip id="bus181" type="bus181" depart="253.40" departLane="best" departSpeed="5.00" from="E0" to="E1"/>
    <trip id="bus182" type="bus182" depart="254.80" departLane="best" departSpeed="5.00" from="E0" to="E1"/>
    <trip id="bus183" type="bus183" depart="256.20" departLane="best" departSpeed="5.00" from="E0" to="E1"/>
    <trip id="bus184" type="bus184" depart="257.60" departLane="best" departSpeed="5.00" from="E0" to="E1"/>
    <trip id="bus185" type="bus185" depart="259.00" departLane="best" departSpeed="5.00" from="E0" to="E1"/>
    <trip id="bus186" type="bus186" depart="260.40" departLane="best" departSpeed="5.00" from="E0" to="E1"/>
    <trip id="bus187" type="bus187" depart="261.80" departLane="best" departSpeed="5.00" from="E0" to="E1"/>
    <trip id="bus188" type="bus188" depart="263.20" departLane="best" departSpeed="5.00" from="E0" to="E1"/>
    <trip id="bus189" type="bus189" depart="264.60" departLane="best" departSpeed="5.00" from="E0" to="E1"/>
    <trip id="bus190" type="bus190" depart="266.00" departLane="best" departSpeed="5.00" from="E0" to="E1"/>
    <trip id="bus191" type="bus191" depart="267.40" departLane="best" departSpeed="5.00" from="E0" to="E1"/>
    <trip id="bus192" type="bus192" depart="268.80" departLane="best" departSpeed="5.00" from="E0" to="E1"/>
    <trip id="bus193" type="bus193" depart="270.20" departLane="best" departSpeed="5.00" from="E0" to="E1"/>
    <trip id="bus194" type="bus194" depart="271.60" departLane="best" departSpeed="5.00" from="E0" to="E1"/>
    <trip id="bus195" type="bus195" depart="273.00" departLane="best" departSpeed="5.00" from="E0" to="E1"/>
    <trip id="bus196" type="bus196" depart="274.40" departLane="best" departSpeed="5.00" from="E0" to="E1"/>
    <trip id="bus197" type="bus197" depart="275.80" departLane="best" departSpeed="5.00" from="E0" to="E1"/>
    <trip id="bus198" type="bus198" depart="277.20" departLane="best" departSpeed="5.00" from="E0" to="E1"/>
    <trip id="bus199" type="bus199" depart="278.60" departLane="best" departSpeed="5.00" from="E0" to="E1"/>
    <trip id="bus200" type="bus200" depart="280.00" departLane="best" departSpeed="5.00" from="E0" to="E1"/>
    <trip id="bus201" type="bus201" depart="281.40" departLane="best" departSpeed="5.00" from="E0" to="E1"/>
    <trip id="bus202" type="bus202" depart="282.80" departLane="best" departSpeed="5.00" from="E0" to="E1"/>
    <trip id="bus203" type="bus203" depart="284.20" departLane="best" departSpeed="5.00" from="E0" to="E1"/>
    <trip id="bus204" type="bus204" depart="285.60" departLane="best" departSpeed="5.00" from="E0" to="E1"/>
    <trip id="bus205" type="bus205" depart="287.00" departLane="best" departSpeed="5.00" from="E0" to="E1"/>
    <trip id="bus206" type="bus206" depart="288.40" departLane="best" departSpeed="5.00" from="E0" to="E1"/>
    <trip id="bus207" type="bus207" depart="289.80" departLane="best" departSpeed="5.00" from="E0" to="E1"/>
    <trip id="bus208" type="bus208" depart="291.20" departLane="best" departSpeed="5.00" from="E0" to="E1"/>
    <trip id="bus209" type="bus209" depart="292.60" departLane="best" departSpeed="5.00" from="E0" to="E1"/>
    <trip id="bus210" type="bus210" depart="294.00" departLane="best" departSpeed="5.00" from="E0" to="E1"/>
    <trip id="bus211" type="bus211" depart="295.40" departLane="best" departSpeed="5.00" from="E0" to="E1"/>
    <trip id="bus212" type="bus212" depart="296.80" departLane="best" departSpeed="5.00" from="E0" to="E1"/>
    <trip id="bus213" type="bus213" depart="298.20" departLane="best" departSpeed="5.00" from="E0" to="E1"/>
    <trip id="bus214" type="bus214" depart="299.60" departLane="best" departSpeed="5.00" from="E0" to="E1"/>
    <trip id="bus215" type="bus215" depart="301.00" departLane="best" departSpeed="5.00" from="E0" to="E1"/>
    <trip id="bus216" type="bus216" depart="302.40" departLane="best" departSpeed="5.00" from="E0" to="E1"/>
    <trip id="bus217" type="bus217" depart="303.80" departLane="best" departSpeed="5.00" from="E0" to="E1"/>
    <trip id="bus218" type="bus218" depart="305.20" departLane="best" departSpeed="5.00" from="E0" to="E1"/>
    <trip id="bus219" type="bus219" depart="306.60" departLane="best" departSpeed="5.00" from="E0" to="E1"/>
    <trip id="bus220" type="bus220" depart="308.00" departLane="best" departSpeed="5.00" from="E0" to="E1"/>
    <trip id="bus221" type="bus221" depart="309.40" departLane="best" departSpeed="5.00" from="E0" to="E1"/>
    <trip id="bus222" type="bus222" depart="310.80" departLane="best" departSpeed="5.00" from="E0" to="E1"/>
    <trip id="bus223" type="bus223" depart="312.20" departLane="best" departSpeed="5.00" from="E0" to="E1"/>
    <trip id="bus224" type="bus224" depart="313.60" departLane="best" departSpeed="5.00" from="E0" to="E1"/>
    <trip id="bus225" type="bus225" depart="315.00" departLane="best" departSpeed="5.00" from="E0" to="E1"/>
    <trip id="bus226" type="bus226" depart="316.40" departLane="best" departSpeed="5.00" from="E0" to="E1"/>
    <trip id="bus227" type="bus227" depart="317.80" departLane="best" departSpeed="5.00" from="E0" to="E1"/>
    <trip id="bus228" type="bus228" depart="319.20" departLane="best" departSpeed="5.00" from="E0" to="E1"/>
    <trip id="bus229" type="bus229" depart="320.60" departLane="best" departSpeed="5.00" from="E0" to="E1"/>
    <trip id="bus230" type="bus230" depart="322.00" departLane="best" departSpeed="5.00" from="E0" to="E1"/>
    <trip id="bus231" type="bus231" depart="323.40" departLane="best" departSpeed="5.00" from="E0" to="E1"/>
    <trip id="bus232" type="bus232" depart="324.80" departLane="best" departSpeed="5.00" from="E0" to="E1"/>
    <trip id="bus233" type="bus233" depart="326.20" departLane="best" departSpeed="5.00" from="E0" to="E1"/>
    <trip id="bus234" type="bus234" depart="327.60" departLane="best" departSpeed="5.00" from="E0" to="E1"/>
    <trip id="bus235" type="bus235" depart="329.00" departLane="best" departSpeed="5.00" from="E0" to="E1"/>
    <trip id="bus236" type="bus236" depart="330.40" departLane="best" departSpeed="5.00" from="E0" to="E1"/>
    <trip id="bus237" type="bus237" depart="331.80" departLane="best" departSpeed="5.00" from="E0" to="E1"/>
    <trip id="bus238" type="bus238" depart="333.20" departLane="best" departSpeed="5.00" from="E0" to="E1"/>
    <trip id="bus239" type="bus239" depart="334.60" departLane="best" departSpeed="5.00" from="E0" to="E1"/>
    <trip id="bus240" type="bus240" depart="336.00" departLane="best" departSpeed="5.00" from="E0" to="E1"/>
    <trip id="bus241" type="bus241" depart="337.40" departLane="best" departSpeed="5.00" from="E0" to="E1"/>
    <trip id="bus242" type="bus242" depart="338.80" departLane="best" departSpeed="5.00" from="E0" to="E1"/>
    <trip id="bus243" type="bus243" depart="340.20" departLane="best" departSpeed="5.00" from="E0" to="E1"/>
    <trip id="bus244" type="bus244" depart="341.60" departLane="best" departSpeed="5.00" from="E0" to="E1"/>
    <trip id="bus245" type="bus245" depart="343.00" departLane="best" departSpeed="5.00" from="E0" to="E1"/>
    <trip id="bus246" type="bus246" depart="344.40" departLane="best" departSpeed="5.00" from="E0" to="E1"/>
    <trip id="bus247" type="bus247" depart="345.80" departLane="best" departSpeed="5.00" from="E0" to="E1"/>
    <trip id="bus248" type="bus248" depart="347.20" departLane="best" departSpeed="5.00" from="E0" to="E1"/>
    <trip id="bus249" type="bus249" depart="348.60" departLane="best" departSpeed="5.00" from="E0" to="E1"/>
    <trip id="bus250" type="bus250" depart="350.00" departLane="best" departSpeed="5.00" from="E0" to="E1"/>
    <trip id="bus251" type="bus251" depart="351.40" departLane="best" departSpeed="5.00" from="E0" to="E1"/>
    <trip id="bus252" type="bus252" depart="352.80" departLane="best" departSpeed="5.00" from="E0" to="E1"/>
    <trip id="bus253" type="bus253" depart="354.20" departLane="best" departSpeed="5.00" from="E0" to="E1"/>
    <trip id="bus254" type="bus254" depart="355.60" departLane="best" departSpeed="5.00" from="E0" to="E1"/>
    <trip id="bus255" type="bus255" depart="357.00" departLane="best" departSpeed="5.00" from="E0" to="E1"/>
    <trip id="bus256" type="bus256" depart="358.40" departLane="best" departSpeed="5.00" from="E0" to="E1"/>
    <trip id="bus257" type="bus257" depart="359.80" departLane="best" departSpeed="5.00" from="E0" to="E1"/>
    <trip id="bus258" type="bus258" depart="361.20" departLane="best" departSpeed="5.00" from="E0" to="E1"/>
    <trip id="bus259" type="bus259" depart="362.60" departLane="best" departSpeed="5.00" from="E0" to="E1"/>
    <trip id="bus260" type="bus260" depart="364.00" departLane="best" departSpeed="5.00" from="E0" to="E1"/>
    <trip id="bus261" type="bus261" depart="365.40" departLane="best" departSpeed="5.00" from="E0" to="E1"/>
    <trip id="bus262" type="bus262" depart="366.80" departLane="best" departSpeed="5.00" from="E0" to="E1"/>
    <trip id="bus263" type="bus263" depart="368.20" departLane="best" departSpeed="5.00" from="E0" to="E1"/>