<?xml version="1.0" ?>
<additional xmlns:xsi="http://www.w3.org/2001/XMLSchema-instance" xsi:noNamespaceSchemaLocation="http://sumo.dlr.de/xsd/additional_file.xsd">
	<vTypeDistribution id="car">
		<vType id="car0" tau="3.158" accel="2.295" decel="2.954" maxSpeed="15.366" carFollowModel="EIDM" sigma="0.762" lcSigma="0.529" lcSublane="0.334" lcPushy="0.419" lcAssertive="76.885" lcSpeedGainRight="0.045" vClass="passenger" lcStrategic="99.000" maxSpeedLat="3.500" lcKeepRight="0.000" lcOvertakeRight="0.000" lcCooperative="0.864" lcLookaheadLeft="76.179"/>
		<vType id="car1" tau="0.396" accel="2.295" decel="2.954" maxSpeed="18.914" carFollowModel="EIDM" sigma="0.762" lcSigma="0.529" lcSublane="0.334" lcPushy="0.419" lcAssertive="76.885" lcSpeedGainRight="0.045" vClass="passenger" lcStrategic="99.000" maxSpeedLat="3.500" lcKeepRight="0.000" lcOvertakeRight="0.000" lcCooperative="0.864" lcLookaheadLeft="76.179"/>
		<vType id="car2" tau="4.040" accel="2.295" decel="2.954" maxSpeed="12.071" carFollowModel="EIDM" sigma="0.762" lcSigma="0.529" lcSublane="0.334" lcPushy="0.419" lcAssertive="76.885" lcSpeedGainRight="0.045" vClass="passenger" lcStrategic="99.000" maxSpeedLat="3.500" lcKeepRight="0.000" lcOvertakeRight="0.000" lcCooperative="0.864" lcLookaheadLeft="76.179"/>
		<vType id="car3" tau="4.030" accel="2.295" decel="2.954" maxSpeed="19.795" carFollowModel="EIDM" sigma="0.762" lcSigma="0.529" lcSublane="0.334" lcPushy="0.419" lcAssertive="76.885" lcSpeedGainRight="0.045" vClass="passenger" lcStrategic="99.000" maxSpeedLat="3.500" lcKeepRight="0.000" lcOvertakeRight="0.000" lcCooperative="0.864" lcLookaheadLeft="76.179"/>
		<vType id="car4" tau="3.622" accel="2.295" decel="2.954" maxSpeed="16.694" carFollowModel="EIDM" sigma="0.762" lcSigma="0.529" lcSublane="0.334" lcPushy="0.419" lcAssertive="76.885" lcSpeedGainRight="0.045" vClass="passenger" lcStrategic="99.000" maxSpeedLat="3.500" lcKeepRight="0.000" lcOvertakeRight="0.000" lcCooperative="0.864" lcLookaheadLeft="76.179"/>
		<vType id="car5" tau="4.569" accel="2.295" decel="2.954" maxSpeed="14.572" carFollowModel="EIDM" sigma="0.762" lcSigma="0.529" lcSublane="0.334" lcPushy="0.419" lcAssertive="76.885" lcSpeedGainRight="0.045" vClass="passenger" lcStrategic="99.000" maxSpeedLat="3.500" lcKeepRight="0.000" lcOvertakeRight="0.000" lcCooperative="0.864" lcLookaheadLeft="76.179"/>
		<vType id="car6" tau="2.419" accel="2.295" decel="2.954" maxSpeed="21.044" carFollowModel="EIDM" sigma="0.762" lcSigma="0.529" lcSublane="0.334" lcPushy="0.419" lcAssertive="76.885" lcSpeedGainRight="0.045" vClass="passenger" lcStrategic="99.000" maxSpeedLat="3.500" lcKeepRight="0.000" lcOvertakeRight="0.000" lcCooperative="0.864" lcLookaheadLeft="76.179"/>
		<vType id="car7" tau="1.400" accel="2.295" decel="2.954" maxSpeed="18.379" carFollowModel="EIDM" sigma="0.762" lcSigma="0.529" lcSublane="0.334" lcPushy="0.419" lcAssertive="76.885" lcSpeedGainRight="0.045" vClass="passenger" lcStrategic="99.000" maxSpeedLat="3.500" lcKeepRight="0.000" lcOvertakeRight="0.000" lcCooperative="0.864" lcLookaheadLeft="76.179"/>
		<vType id="car8" tau="5.159" accel="2.295" decel="2.954" maxSpeed="23.656" carFollowModel="EIDM" sigma="0.762" lcSigma="0.529" lcSublane="0.334" lcPushy="0.419" lcAssertive="76.885" lcSpeedGainRight="0.045" vClass="passenger" lcStrategic="99.000" maxSpeedLat="3.500" lcKeepRight="0.000" lcOvertakeRight="0.000" lcCooperative="0.864" lcLookaheadLeft="76.179"/>
		<vType id="car9" tau="3.189" accel="2.295" decel="2.954" maxSpeed="10.259" carFollowModel="EIDM" sigma="0.762" lcSigma="0.529" lcSublane="0.334" lcPushy="0.419" lcAssertive="76.885" lcSpeedGainRight="0.045" vClass="passenger" lcStrategic="99.000" maxSpeedLat="3.500" lcKeepRight="0.000" lcOvertakeRight="0.000" lcCooperative="0.864" lcLookaheadLeft="76.179"/>
		<vType id="car10" tau="2.046" accel="2.295" decel="2.954" maxSpeed="24.951" carFollowModel="EIDM" sigma="0.762" lcSigma="0.529" lcSublane="0.334" lcPushy="0.419" lcAssertive="76.885" lcSpeedGainRight="0.045" vClass="passenger" lcStrategic="99.000" maxSpeedLat="3.500" lcKeepRight="0.000" lcOvertakeRight="0.000" lcCooperative="0.864" lcLookaheadLeft="76.179"/>
		<vType id="car11" tau="0.427" accel="2.295" decel="2.954" maxSpeed="8.259" carFollowModel="EIDM" sigma="0.762" lcSigma="0.529" lcSublane="0.334" lcPushy="0.419" lcAssertive="76.885" lcSpeedGainRight="0.045" vClass="passenger" lcStrategic="99.000" maxSpeedLat="3.500" lcKeepRight="0.000" lcOvertakeRight="0.000" lcCooperative="0.864" lcLookaheadLeft="76.179"/>
		<vType id="car12" tau="3.459" accel="2.295" decel="2.954" maxSpeed="26.279" carFollowModel="EIDM" sigma="0.762" lcSigma="0.529" lcSublane="0.334" lcPushy="0.419" lcAssertive="76.885" lcSpeedGainRight="0.045" vClass="passenger" lcStrategic="99.000" maxSpeedLat="3.500" lcKeepRight="0.000" lcOvertakeRight="0.000" lcCooperative="0.864" lcLookaheadLeft="76.179"/>
		<vType id="car13" tau="5.006" accel="2.295" decel="2.954" maxSpeed="14.969" carFollowModel="EIDM" sigma="0.762" lcSigma="0.529" lcSublane="0.334" lcPushy="0.419" lcAssertive="76.885" lcSpeedGainRight="0.045" vClass="passenger" lcStrategic="99.000" maxSpeedLat="3.500" lcKeepRight="0.000" lcOvertakeRight="0.000" lcCooperative="0.864" lcLookaheadLeft="76.179"/>
		<vType id="car14" tau="4.459" accel="2.295" decel="2.954" maxSpeed="18.743" carFollowModel="EIDM" sigma="0.762" lcSigma="0.529" lcSublane="0.334" lcPushy="0.419" lcAssertive="76.885" lcSpeedGainRight="0.045" vClass="passenger" lcStrategic="99.000" maxSpeedLat="3.500" lcKeepRight="0.000" lcOvertakeRight="0.000" lcCooperative="0.864" lcLookaheadLeft="76.179"/>
		<vType id="car15" tau="5.702" accel="2.295" decel="2.954" maxSpeed="10.320" carFollowModel="EIDM" sigma="0.762" lcSigma="0.529" lcSublane="0.334" lcPushy="0.419" lcAssertive="76.885" lcSpeedGainRight="0.045" vClass="passenger" lcStrategic="99.000" maxSpeedLat="3.500" lcKeepRight="0.000" lcOvertakeRight="0.000" lcCooperative="0.864" lcLookaheadLeft="76.179"/>
		<vType id="car16" tau="4.421" accel="2.295" decel="2.954" maxSpeed="6.440" carFollowModel="EIDM" sigma="0.762" lcSigma="0.529" lcSublane="0.334" lcPushy="0.419" lcAssertive="76.885" lcSpeedGainRight="0.045" vClass="passenger" lcStrategic="99.000" maxSpeedLat="3.500" lcKeepRight="0.000" lcOvertakeRight="0.000" lcCooperative="0.864" lcLookaheadLeft="76.179"/>
		<vType id="car17" tau="4.767" accel="2.295" decel="2.954" maxSpeed="21.317" carFollowModel="EIDM" sigma="0.762" lcSigma="0.529" lcSublane="0.334" lcPushy="0.419" lcAssertive="76.885" lcSpeedGainRight="0.045" vClass="passenger" lcStrategic="99.000" maxSpeedLat="3.500" lcKeepRight="0.000" lcOvertakeRight="0.000" lcCooperative="0.864" lcLookaheadLeft="76.179"/>
		<vType id="car18" tau="3.686" accel="2.295" decel="2.954" maxSpeed="23.017" carFollowModel="EIDM" sigma="0.762" lcSigma="0.529" lcSublane="0.334" lcPushy="0.419" lcAssertive="76.885" lcSpeedGainRight="0.045" vClass="passenger" lcStrategic="99.000" maxSpeedLat="3.500" lcKeepRight="0.000" lcOvertakeRight="0.000" lcCooperative="0.864" lcLookaheadLeft="76.179"/>
		<vType id="car19" tau="5.372" accel="2.295" decel="2.954" maxSpeed="23.578" carFollowModel="EIDM" sigma="0.762" lcSigma="0.529" lcSublane="0.334" lcPushy="0.419" lcAssertive="76.885" lcSpeedGainRight="0.045" vClass="passenger" lcStrategic="99.000" maxSpeedLat="3.500" lcKeepRight="0.000" lcOvertakeRight="0.000" lcCooperative="0.864" lcLookaheadLeft="76.179"/>
		<vType id="car20" tau="4.303" accel="2.295" decel="2.954" maxSpeed="16.019" carFollowModel="EIDM" sigma="0.762" lcSigma="0.529" lcSublane="0.334" lcPushy="0.419" lcAssertive="76.885" lcSpeedGainRight="0.045" vClass="passenger" lcStrategic="99.000" maxSpeedLat="3.500" lcKeepRight="0.000" lcOvertakeRight="0.000" lcCooperative="0.864" lcLookaheadLeft="76.179"/>
		<vType id="car21" tau="3.084" accel="2.295" decel="2.954" maxSpeed="20.439" carFollowModel="EIDM" sigma="0.762" lcSigma="0.529" lcSublane="0.334" lcPushy="0.419" lcAssertive="76.885" lcSpeedGainRight="0.045" vClass="passenger" lcStrategic="99.000" maxSpeedLat="3.500" lcKeepRight="0.000" lcOvertakeRight="0.000" lcCooperative="0.864" lcLookaheadLeft="76.179"/>
		<vType id="car22" tau="4.421" accel="2.295" decel="2.954" maxSpeed="14.209" carFollowModel="EIDM" sigma="0.762" lcSigma="0.529" lcSublane="0.334" lcPushy="0.419" lcAssertive="76.885" lcSpeedGainRight="0.045" vClass="passenger" lcStrategic="99.000" maxSpeedLat="3.500" lcKeepRight="0.000" lcOvertakeRight="0.000" lcCooperative="0.864" lcLookaheadLeft="76.179"/>
		<vType id="car23" tau="4.964" accel="2.295" decel="2.954" maxSpeed="22.998" carFollowModel="EIDM" sigma="0.762" lcSigma="0.529" lcSublane="0.334" lcPushy="0.419" lcAssertive="76.885" lcSpeedGainRight="0.045" vClass="passenger" lcStrategic="99.000" maxSpeedLat="3.500" lcKeepRight="0.000" lcOvertakeRight="0.000" lcCooperative="0.864" lcLookaheadLeft="76.179"/>
		<vType id="car24" tau="5.796" accel="2.295" decel="2.954" maxSpeed="8.425" carFollowModel="EIDM" sigma="0.762" lcSigma="0.529" lcSublane="0.334" lcPushy="0.419" lcAssertive="76.885" lcSpeedGainRight="0.045" vClass="passenger" lcStrategic="99.000" maxSpeedLat="3.500" lcKeepRight="0.000" lcOvertakeRight="0.000" lcCooperative="0.864" lcLookaheadLeft="76.179"/>
		<vType id="car25" tau="1.299" accel="2.295" decel="2.954" maxSpeed="26.264" carFollowModel="EIDM" sigma="0.762" lcSigma="0.529" lcSublane="0.334" lcPushy="0.419" lcAssertive="76.885" lcSpeedGainRight="0.045" vClass="passenger" lcStrategic="99.000" maxSpeedLat="3.500" lcKeepRight="0.000" lcOvertakeRight="0.000" lcCooperative="0.864" lcLookaheadLeft="76.179"/>
		<vType id="car26" tau="0.968" accel="2.295" decel="2.954" maxSpeed="13.743" carFollowModel="EIDM" sigma="0.762" lcSigma="0.529" lcSublane="0.334" lcPushy="0.419" lcAssertive="76.885" lcSpeedGainRight="0.045" vClass="passenger" lcStrategic="99.000" maxSpeedLat="3.500" lcKeepRight="0.000" lcOvertakeRight="0.000" lcCooperative="0.864" lcLookaheadLeft="76.179"/>
		<vType id="car27" tau="1.967" accel="2.295" decel="2.954" maxSpeed="18.460" carFollowModel="EIDM" sigma="0.762" lcSigma="0.529" lcSublane="0.334" lcPushy="0.419" lcAssertive="76.885" lcSpeedGainRight="0.045" vClass="passenger" lcStrategic="99.000" maxSpeedLat="3.500" lcKeepRight="0.000" lcOvertakeRight="0.000" lcCooperative="0.864" lcLookaheadLeft="76.179"/>
		<vType id="car28" tau="4.803" accel="2.295" decel="2.954" maxSpeed="14.267" carFollowModel="EIDM" sigma="0.762" lcSigma="0.529" lcSublane="0.334" lcPushy="0.419" lcAssertive="76.885" lcSpeedGainRight="0.045" vClass="passenger" lcStrategic="99.000" maxSpeedLat="3.500" lcKeepRight="0.000" lcOvertakeRight="0.000" lcCooperative="0.864" lcLookaheadLeft="76.179"/>
		<vType id="car29" tau="2.827" accel="2.295" decel="2.954" maxSpeed="12.950" carFollowModel="EIDM" sigma="0.762" lcSigma="0.529" lcSublane="0.334" lcPushy="0.419" lcAssertive="76.885" lcSpeedGainRight="0.045" vClass="passenger" lcStrategic="99.000" maxSpeedLat="3.500" lcKeepRight="0.000" lcOvertakeRight="0.000" lcCooperative="0.864" lcLookaheadLeft="76.179"/>
		<vType id="car30" tau="0.574" accel="2.295" decel="2.954" maxSpeed="7.556" carFollowModel="EIDM" sigma="0.762" lcSigma="0.529" lcSublane="0.334" lcPushy="0.419" lcAssertive="76.885" lcSpeedGainRight="0.045" vClass="passenger" lcStrategic="99.000" maxSpeedLat="3.500" lcKeepRight="0.000" lcOvertakeRight="0.000" lcCooperative="0.864" lcLookaheadLeft="76.179"/>
		<vType id="car31" tau="0.929" accel="2.295" decel="2.954" maxSpeed="17.002" carFollowModel="EIDM" sigma="0.762" lcSigma="0.529" lcSublane="0.334" lcPushy="0.419" lcAssertive="76.885" lcSpeedGainRight="0.045" vClass="passenger" lcStrategic="99.000" maxSpeedLat="3.500" lcKeepRight="0.000" lcOvertakeRight="0.000" lcCooperative="0.864" lcLookaheadLeft="76.179"/>
		<vType id="car32" tau="2.401" accel="2.295" decel="2.954" maxSpeed="21.577" carFollowModel="EIDM" sigma="0.762" lcSigma="0.529" lcSublane="0.334" lcPushy="0.419" lcAssertive="76.885" lcSpeedGainRight="0.045" vClass="passenger" lcStrategic="99.000" maxSpeedLat="3.500" lcKeepRight="0.000" lcOvertakeRight="0.000" lcCooperative="0.864" lcLookaheadLeft="76.179"/>
		<vType id="car33" tau="1.503" accel="2.295" decel="2.954" maxSpeed="28.206" carFollowModel="EIDM" sigma="0.762" lcSigma="0.529" lcSublane="0.334" lcPushy="0.419" lcAssertive="76.885" lcSpeedGainRight="0.045" vClass="passenger" lcStrategic="99.000" maxSpeedLat="3.500" lcKeepRight="0.000" lcOvertakeRight="0.000" lcCooperative="0.864" lcLookaheadLeft="76.179"/>
		<vType id="car34" tau="0.272" accel="2.295" decel="2.954" maxSpeed="21.195" carFollowModel="EIDM" sigma="0.762" lcSigma="0.529" lcSublane="0.334" lcPushy="0.419" lcAssertive="76.885" lcSpeedGainRight="0.045" vClass="passenger" lcStrategic="99.000" maxSpeedLat="3.500" lcKeepRight="0.000" lcOvertakeRight="0.000" lcCooperative="0.864" lcLookaheadLeft="76.179"/>
		<vType id="car35" tau="4.826" accel="2.295" decel="2.954" maxSpeed="23.927" carFollowModel="EIDM" sigma="0.762" lcSigma="0.529" lcSublane="0.334" lcPushy="0.419" lcAssertive="76.885" lcSpeedGainRight="0.045" vClass="passenger" lcStrategic="99.000" maxSpeedLat="3.500" lcKeepRight="0.000" lcOvertakeRight="0.000" lcCooperative="0.864" lcLookaheadLeft="76.179"/>
		<vType id="car36" tau="0.843" accel="2.295" decel="2.954" maxSpeed="7.130" carFollowModel="EIDM" sigma="0.762" lcSigma="0.529" lcSublane="0.334" lcPushy="0.419" lcAssertive="76.885" lcSpeedGainRight="0.045" vClass="passenger" lcStrategic="99.000" maxSpeedLat="3.500" lcKeepRight="0.000" lcOvertakeRight="0.000" lcCooperative="0.864" lcLookaheadLeft="76.179"/>
		<vType id="car37" tau="4.806" accel="2.295" decel="2.954" maxSpeed="27.497" carFollowModel="EIDM" sigma="0.762" lcSigma="0.529" lcSublane="0.334" lcPushy="0.419" lcAssertive="76.885" lcSpeedGainRight="0.045" vClass="passenger" lcStrategic="99.000" maxSpeedLat="3.500" lcKeepRight="0.000" lcOvertakeRight="0.000" lcCooperative="0.864" lcLookaheadLeft="76.179"/>
		<vType id="car38" tau="5.932" accel="2.295" decel="2.954" maxSpeed="15.610" carFollowModel="EIDM" sigma="0.762" lcSigma="0.529" lcSublane="0.334" lcPushy="0.419" lcAssertive="76.885" lcSpeedGainRight="0.045" vClass="passenger" lcStrategic="99.000" maxSpeedLat="3.500" lcKeepRight="0.000" lcOvertakeRight="0.000" lcCooperative="0.864" lcLookaheadLeft="76.179"/>
		<vType id="car39" tau="3.254" accel="2.295" decel="2.954" maxSpeed="11.404" carFollowModel="EIDM" sigma="0.762" lcSigma="0.529" lcSublane="0.334" lcPushy="0.419" lcAssertive="76.885" lcSpeedGainRight="0.045" vClass="passenger" lcStrategic="99.000" maxSpeedLat="3.500" lcKeepRight="0.000" lcOvertakeRight="0.000" lcCooperative="0.864" lcLookaheadLeft="76.179"/>
		<vType id="car40" tau="0.682" accel="2.295" decel="2.954" maxSpeed="17.074" carFollowModel="EIDM" sigma="0.762" lcSigma="0.529" lcSublane="0.334" lcPushy="0.419" lcAssertive="76.885" lcSpeedGainRight="0.045" vClass="passenger" lcStrategic="99.000" maxSpeedLat="3.500" lcKeepRight="0.000" lcOvertakeRight="0.000" lcCooperative="0.864" lcLookaheadLeft="76.179"/>
		<vType id="car41" tau="1.972" accel="2.295" decel="2.954" maxSpeed="23.664" carFollowModel="EIDM" sigma="0.762" lcSigma="0.529" lcSublane="0.334" lcPushy="0.419" lcAssertive="76.885" lcSpeedGainRight="0.045" vClass="passenger" lcStrategic="99.000" maxSpeedLat="3.500" lcKeepRight="0.000" lcOvertakeRight="0.000" lcCooperative="0.864" lcLookaheadLeft="76.179"/>
		<vType id="car42" tau="2.506" accel="2.295" decel="2.954" maxSpeed="27.047" carFollowModel="EIDM" sigma="0.762" lcSigma="0.529" lcSublane="0.334" lcPushy="0.419" lcAssertive="76.885" lcSpeedGainRight="0.045" vClass="passenger" lcStrategic="99.000" maxSpeedLat="3.500" lcKeepRight="0.000" lcOvertakeRight="0.000" lcCooperative="0.864" lcLookaheadLeft="76.179"/>
		<vType id="car43" tau="5.222" accel="2.295" decel="2.954" maxSpeed="12.514" carFollowModel="EIDM" sigma="0.762" lcSigma="0.529" lcSublane="0.334" lcPushy="0.419" lcAssertive="76.885" lcSpeedGainRight="0.045" vClass="passenger" lcStrategic="99.000" maxSpeedLat="3.500" lcKeepRight="0.000" lcOvertakeRight="0.000" lcCooperative="0.864" lcLookaheadLeft="76.179"/>
		<vType id="car44" tau="3.742" accel="2.295" decel="2.954" maxSpeed="19.790" carFollowModel="EIDM" sigma="0.762" lcSigma="0.529" lcSublane="0.334" lcPushy="0.419" lcAssertive="76.885" lcSpeedGainRight="0.045" vClass="passenger" lcStrategic="99.000" maxSpeedLat="3.500" lcKeepRight="0.000" lcOvertakeRight="0.000" lcCooperative="0.864" lcLookaheadLeft="76.179"/>
		<vType id="car45" tau="1.307" accel="2.295" decel="2.954" maxSpeed="17.224" carFollowModel="EIDM" sigma="0.762" lcSigma="0.529" lcSublane="0.334" lcPushy="0.419" lcAssertive="76.885" lcSpeedGainRight="0.045" vClass="passenger" lcStrategic="99.000" maxSpeedLat="3.500" lcKeepRight="0.000" lcOvertakeRight="0.000" lcCooperative="0.864" lcLookaheadLeft="76.179"/>
		<vType id="car46" tau="4.305" accel="2.295" decel="2.954" maxSpeed="22.606" carFollowModel="EIDM" sigma="0.762" lcSigma="0.529" lcSublane="0.334" lcPushy="0.419" lcAssertive="76.885" lcSpeedGainRight="0.045" vClass="passenger" lcStrategic="99.000" maxSpeedLat="3.500" lcKeepRight="0.000" lcOvertakeRight="0.000" lcCooperative="0.864" lcLookaheadLeft="76.179"/>
		<vType id="car47" tau="4.278" accel="2.295" decel="2.954" maxSpeed="25.274" carFollowModel="EIDM" sigma="0.762" lcSigma="0.529" lcSublane="0.334" lcPushy="0.419" lcAssertive="76.885" lcSpeedGainRight="0.045" vClass="passenger" lcStrategic="99.000" maxSpeedLat="3.500" lcKeepRight="0.000" lcOvertakeRight="0.000" lcCooperative="0.864" lcLookaheadLeft="76.179"/>
		<vType id="car48" tau="0.576" accel="2.295" decel="2.954" maxSpeed="18.623" carFollowModel="EIDM" sigma="0.762" lcSigma="0.529" lcSublane="0.334" lcPushy="0.419" lcAssertive="76.885" lcSpeedGainRight="0.045" vClass="passenger" lcStrategic="99.000" maxSpeedLat="3.500" lcKeepRight="0.000" lcOvertakeRight="0.000" lcCooperative="0.864" lcLookaheadLeft="76.179"/>
		<vType id="car49" tau="2.288" accel="2.295" decel="2.954" maxSpeed="8.306" carFollowModel="EIDM" sigma="0.762" lcSigma="0.529" lcSublane="0.334" lcPushy="0.419" lcAssertive="76.885" lcSpeedGainRight="0.045" vClass="passenger" lcStrategic="99.000" maxSpeedLat="3.500" lcKeepRight="0.000" lcOvertakeRight="0.000" lcCooperative="0.864" lcLookaheadLeft="76.179"/>
		<vType id="car50" tau="5.424" accel="2.295" decel="2.954" maxSpeed="18.352" carFollowModel="EIDM" sigma="0.762" lcSigma="0.529" lcSublane="0.334" lcPushy="0.419" lcAssertive="76.885" lcSpeedGainRight="0.045" vClass="passenger" lcStrategic="99.000" maxSpeedLat="3.500" lcKeepRight="0.000" lcOvertakeRight="0.000" lcCooperative="0.864" lcLookaheadLeft="76.179"/>
		<vType id="car51" tau="3.159" accel="2.295" decel="2.954" maxSpeed="27.631" carFollowModel="EIDM" sigma="0.762" lcSigma="0.529" lcSublane="0.334" lcPushy="0.419" lcAssertive="76.885" lcSpeedGainRight="0.045" vClass="passenger" lcStrategic="99.000" maxSpeedLat="3.500" lcKeepRight="0.000" lcOvertakeRight="0.000" lcCooperative="0.864" lcLookaheadLeft="76.179"/>
		<vType id="car52" tau="0.851" accel="2.295" decel="2.954" maxSpeed="28.533" carFollowModel="EIDM" sigma="0.762" lcSigma="0.529" lcSublane="0.334" lcPushy="0.419" lcAssertive="76.885" lcSpeedGainRight="0.045" vClass="passenger" lcStrategic="99.000" maxSpeedLat="3.500" lcKeepRight="0.000" lcOvertakeRight="0.000" lcCooperative="0.864" lcLookaheadLeft="76.179"/>
		<vType id="car53" tau="1.924" accel="2.295" decel="2.954" maxSpeed="14.661" carFollowModel="EIDM" sigma="0.762" lcSigma="0.529" lcSublane="0.334" lcPushy="0.419" lcAssertive="76.885" lcSpeedGainRight="0.045" vClass="passenger" lcStrategic="99.000" maxSpeedLat="3.500" lcKeepRight="0.000" lcOvertakeRight="0.000" lcCooperative="0.864" lcLookaheadLeft="76.179"/>
		<vType id="car54" tau="1.240" accel="2.295" decel="2.954" maxSpeed="27.677" carFollowModel="EIDM" sigma="0.762" lcSigma="0.529" lcSublane="0.334" lcPushy="0.419" lcAssertive="76.885" lcSpeedGainRight="0.045" vClass="passenger" lcStrategic="99.000" maxSpeedLat="3.500" lcKeepRight="0.000" lcOvertakeRight="0.000" lcCooperative="0.864" lcLookaheadLeft="76.179"/>
		<vType id="car55" tau="2.796" accel="2.295" decel="2.954" maxSpeed="23.270" carFollowModel="EIDM" sigma="0.762" lcSigma="0.529" lcSublane="0.334" lcPushy="0.419" lcAssertive="76.885" lcSpeedGainRight="0.045" vClass="passenger" lcStrategic="99.000" maxSpeedLat="3.500" lcKeepRight="0.000" lcOvertakeRight="0.000" lcCooperative="0.864" lcLookaheadLeft="76.179"/>
		<vType id="car56" tau="2.548" accel="2.295" decel="2.954" maxSpeed="27.284" carFollowModel="EIDM" sigma="0.762" lcSigma="0.529" lcSublane="0.334" lcPushy="0.419" lcAssertive="76.885" lcSpeedGainRight="0.045" vClass="passenger" lcStrategic="99.000" maxSpeedLat="3.500" lcKeepRight="0.000" lcOvertakeRight="0.000" lcCooperative="0.864" lcLookaheadLeft="76.179"/>
		<vType id="car57" tau="3.652" accel="2.295" decel="2.954" maxSpeed="7.040" carFollowModel="EIDM" sigma="0.762" lcSigma="0.529" lcSublane="0.334" lcPushy="0.419" lcAssertive="76.885" lcSpeedGainRight="0.045" vClass="passenger" lcStrategic="99.000" maxSpeedLat="3.500" lcKeepRight="0.000" lcOvertakeRight="0.000" lcCooperative="0.864" lcLookaheadLeft="76.179"/>
		<vType id="car58" tau="5.317" accel="2.295" decel="2.954" maxSpeed="13.926" carFollowModel="EIDM" sigma="0.762" lcSigma="0.529" lcSublane="0.334" lcPushy="0.419" lcAssertive="76.885" lcSpeedGainRight="0.045" vClass="passenger" lcStrategic="99.000" maxSpeedLat="3.500" lcKeepRight="0.000" lcOvertakeRight="0.000" lcCooperative="0.864" lcLookaheadLeft="76.179"/>
		<vType id="car59" tau="4.373" accel="2.295" decel="2.954" maxSpeed="8.330" carFollowModel="EIDM" sigma="0.762" lcSigma="0.529" lcSublane="0.334" lcPushy="0.419" lcAssertive="76.885" lcSpeedGainRight="0.045" vClass="passenger" lcStrategic="99.000" maxSpeedLat="3.500" lcKeepRight="0.000" lcOvertakeRight="0.000" lcCooperative="0.864" lcLookaheadLeft="76.179"/>
		<vType id="car60" tau="1.119" accel="2.295" decel="2.954" maxSpeed="7.245" carFollowModel="EIDM" sigma="0.762" lcSigma="0.529" lcSublane="0.334" lcPushy="0.419" lcAssertive="76.885" lcSpeedGainRight="0.045" vClass="passenger" lcStrategic="99.000" maxSpeedLat="3.500" lcKeepRight="0.000" lcOvertakeRight="0.000" lcCooperative="0.864" lcLookaheadLeft="76.179"/>
		<vType id="car61" tau="0.969" accel="2.295" decel="2.954" maxSpeed="20.624" carFollowModel="EIDM" sigma="0.762" lcSigma="0.529" lcSublane="0.334" lcPushy="0.419" lcAssertive="76.885" lcSpeedGainRight="0.045" vClass="passenger" lcStrategic="99.000" maxSpeedLat="3.500" lcKeepRight="0.000" lcOvertakeRight="0.000" lcCooperative="0.864" lcLookaheadLeft="76.179"/>
		<vType id="car62" tau="4.546" accel="2.295" decel="2.954" maxSpeed="12.394" carFollowModel="EIDM" sigma="0.762" lcSigma="0.529" lcSublane="0.334" lcPushy="0.419" lcAssertive="76.885" lcSpeedGainRight="0.045" vClass="passenger" lcStrategic="99.000" maxSpeedLat="3.500" lcKeepRight="0.000" lcOvertakeRight="0.000" lcCooperative="0.864" lcLookaheadLeft="76.179"/>
		<vType id="car63" tau="5.797" accel="2.295" decel="2.954" maxSpeed="19.157" carFollowModel="EIDM" sigma="0.762" lcSigma="0.529" lcSublane="0.334" lcPushy="0.419" lcAssertive="76.885" lcSpeedGainRight="0.045" vClass="passenger" lcStrategic="99.000" maxSpeedLat="3.500" lcKeepRight="0.000" lcOvertakeRight="0.000" lcCooperative="0.864" lcLookaheadLeft="76.179"/>
		<vType id="car64" tau="4.931" accel="2.295" decel="2.954" maxSpeed="22.259" carFollowModel="EIDM" sigma="0.762" lcSigma="0.529" lcSublane="0.334" lcPushy="0.419" lcAssertive="76.885" lcSpeedGainRight="0.045" vClass="passenger" lcStrategic="99.000" maxSpeedLat="3.500" lcKeepRight="0.000" lcOvertakeRight="0.000" lcCooperative="0.864" lcLookaheadLeft="76.179"/>
		<vType id="car65" tau="1.168" accel="2.295" decel="2.954" maxSpeed="17.380" carFollowModel="EIDM" sigma="0.762" lcSigma="0.529" lcSublane="0.334" lcPushy="0.419" lcAssertive="76.885" lcSpeedGainRight="0.045" vClass="passenger" lcStrategic="99.000" maxSpeedLat="3.500" lcKeepRight="0.000" lcOvertakeRight="0.000" lcCooperative="0.864" lcLookaheadLeft="76.179"/>
		<vType id="car66" tau="2.617" accel="2.295" decel="2.954" maxSpeed="12.403" carFollowModel="EIDM" sigma="0.762" lcSigma="0.529" lcSublane="0.334" lcPushy="0.419" lcAssertive="76.885" lcSpeedGainRight="0.045" vClass="passenger" lcStrategic="99.000" maxSpeedLat="3.500" lcKeepRight="0.000" lcOvertakeRight="0.000" lcCooperative="0.864" lcLookaheadLeft="76.179"/>
		<vType id="car67" tau="3.433" accel="2.295" decel="2.954" maxSpeed="11.907" carFollowModel="EIDM" sigma="0.762" lcSigma="0.529" lcSublane="0.334" lcPushy="0.419" lcAssertive="76.885" lcSpeedGainRight="0.045" vClass="passenger" lcStrategic="99.000" maxSpeedLat="3.500" lcKeepRight="0.000" lcOvertakeRight="0.000" lcCooperative="0.864" lcLookaheadLeft="76.179"/>
		<vType id="car68" tau="1.880" accel="2.295" decel="2.954" maxSpeed="24.355" carFollowModel="EIDM" sigma="0.762" lcSigma="0.529" lcSublane="0.334" lcPushy="0.419" lcAssertive="76.885" lcSpeedGainRight="0.045" vClass="passenger" lcStrategic="99.000" maxSpeedLat="3.500" lcKeepRight="0.000" lcOvertakeRight="0.000" lcCooperative="0.864" lcLookaheadLeft="76.179"/>
		<vType id="car69" tau="5.902" accel="2.295" decel="2.954" maxSpeed="27.571" carFollowModel="EIDM" sigma="0.762" lcSigma="0.529" lcSublane="0.334" lcPushy="0.419" lcAssertive="76.885" lcSpeedGainRight="0.045" vClass="passenger" lcStrategic="99.000" maxSpeedLat="3.500" lcKeepRight="0.000" lcOvertakeRight="0.000" lcCooperative="0.864" lcLookaheadLeft="76.179"/>
		<vType id="car70" tau="2.837" accel="2.295" decel="2.954" maxSpeed="23.378" carFollowModel="EIDM" sigma="0.762" lcSigma="0.529" lcSublane="0.334" lcPushy="0.419" lcAssertive="76.885" lcSpeedGainRight="0.045" vClass="passenger" lcStrategic="99.000" maxSpeedLat="3.500" lcKeepRight="0.000" lcOvertakeRight="0.000" lcCooperative="0.864" lcLookaheadLeft="76.179"/>
		<vType id="car71" tau="0.244" accel="2.295" decel="2.954" maxSpeed="17.872" carFollowModel="EIDM" sigma="0.762" lcSigma="0.529" lcSublane="0.334" lcPushy="0.419" lcAssertive="76.885" lcSpeedGainRight="0.045" vClass="passenger" lcStrategic="99.000" maxSpeedLat="3.500" lcKeepRight="0.000" lcOvertakeRight="0.000" lcCooperative="0.864" lcLookaheadLeft="76.179"/>
		<vType id="car72" tau="3.828" accel="2.295" decel="2.954" maxSpeed="18.741" carFollowModel="EIDM" sigma="0.762" lcSigma="0.529" lcSublane="0.334" lcPushy="0.419" lcAssertive="76.885" lcSpeedGainRight="0.045" vClass="passenger" lcStrategic="99.000" maxSpeedLat="3.500" lcKeepRight="0.000" lcOvertakeRight="0.000" lcCooperative="0.864" lcLookaheadLeft="76.179"/>
		<vType id="car73" tau="3.304" accel="2.295" decel="2.954" maxSpeed="29.092" carFollowModel="EIDM" sigma="0.762" lcSigma="0.529" lcSublane="0.334" lcPushy="0.419" lcAssertive="76.885" lcSpeedGainRight="0.045" vClass="passenger" lcStrategic="99.000" maxSpeedLat="3.500" lcKeepRight="0.000" lcOvertakeRight="0.000" lcCooperative="0.864" lcLookaheadLeft="76.179"/>
		<vType id="car74" tau="3.887" accel="2.295" decel="2.954" maxSpeed="15.574" carFollowModel="EIDM" sigma="0.762" lcSigma="0.529" lcSublane="0.334" lcPushy="0.419" lcAssertive="76.885" lcSpeedGainRight="0.045" vClass="passenger" lcStrategic="99.000" maxSpeedLat="3.500" lcKeepRight="0.000" lcOvertakeRight="0.000" lcCooperative="0.864" lcLookaheadLeft="76.179"/>
		<vType id="car75" tau="5.015" accel="2.295" decel="2.954" maxSpeed="21.512" carFollowModel="EIDM" sigma="0.762" lcSigma="0.529" lcSublane="0.334" lcPushy="0.419" lcAssertive="76.885" lcSpeedGainRight="0.045" vClass="passenger" lcStrategic="99.000" maxSpeedLat="3.500" lcKeepRight="0.000" lcOvertakeRight="0.000" lcCooperative="0.864" lcLookaheadLeft="76.179"/>
		<vType id="car76" tau="3.088" accel="2.295" decel="2.954" maxSpeed="21.300" carFollowModel="EIDM" sigma="0.762" lcSigma="0.529" lcSublane="0.334" lcPushy="0.419" lcAssertive="76.885" lcSpeedGainRight="0.045" vClass="passenger" lcStrategic="99.000" maxSpeedLat="3.500" lcKeepRight="0.000" lcOvertakeRight="0.000" lcCooperative="0.864" lcLookaheadLeft="76.179"/>
		<vType id="car77" tau="4.344" accel="2.295" decel="2.954" maxSpeed="22.779" carFollowModel="EIDM" sigma="0.762" lcSigma="0.529" lcSublane="0.334" lcPushy="0.419" lcAssertive="76.885" lcSpeedGainRight="0.045" vClass="passenger" lcStrategic="99.000" maxSpeedLat="3.500" lcKeepRight="0.000" lcOvertakeRight="0.000" lcCooperative="0.864" lcLookaheadLeft="76.179"/>
		<vType id="car78" tau="4.945" accel="2.295" decel="2.954" maxSpeed="22.142" carFollowModel="EIDM" sigma="0.762" lcSigma="0.529" lcSublane="0.334" lcPushy="0.419" lcAssertive="76.885" lcSpeedGainRight="0.045" vClass="passenger" lcStrategic="99.000" maxSpeedLat="3.500" lcKeepRight="0.000" lcOvertakeRight="0.000" lcCooperative="0.864" lcLookaheadLeft="76.179"/>
		<vType id="car79" tau="5.687" accel="2.295" decel="2.954" maxSpeed="16.363" carFollowModel="EIDM" sigma="0.762" lcSigma="0.529" lcSublane="0.334" lcPushy="0.419" lcAssertive="76.885" lcSpeedGainRight="0.045" vClass="passenger" lcStrategic="99.000" maxSpeedLat="3.500" lcKeepRight="0.000" lcOvertakeRight="0.000" lcCooperative="0.864" lcLookaheadLeft="76.179"/>
		<vType id="car80" tau="3.585" accel="2.295" decel="2.954" maxSpeed="20.258" carFollowModel="EIDM" sigma="0.762" lcSigma="0.529" lcSublane="0.334" lcPushy="0.419" lcAssertive="76.885" lcSpeedGainRight="0.045" vClass="passenger" lcStrategic="99.000" maxSpeedLat="3.500" lcKeepRight="0.000" lcOvertakeRight="0.000" lcCooperative="0.864" lcLookaheadLeft="76.179"/>
		<vType id="car81" tau="3.726" accel="2.295" decel="2.954" maxSpeed="15.994" carFollowModel="EIDM" sigma="0.762" lcSigma="0.529" lcSublane="0.334" lcPushy="0.419" lcAssertive="76.885" lcSpeedGainRight="0.045" vClass="passenger" lcStrategic="99.000" maxSpeedLat="3.500" lcKeepRight="0.000" lcOvertakeRight="0.000" lcCooperative="0.864" lcLookaheadLeft="76.179"/>