<?xml version="1.0" encoding="UTF-8"?>

<!-- generated on 2024-08-13 09:40:18.597439 by randomTrips.py UNKNOWN
<configuration>
    <net-file value="highway.net.xml"/>
    <output-trip-file value="car.trips.xml"/>
    <route-file value="output.trips1.xml"/>
    <prefix value="car"/>
    <trip-attributes value="departLane=&quot;best&quot; departSpeed=&quot;5&quot;  "/>
    <lanes value="True"/>
    <fringe-factor value="100000"/>
    <seed value="70"/>
    <min-distance value="10.0"/>
    <max-distance value="500000.0"/>
    <validate value="True"/>
    <end value="754.0"/>
    <period value="0.27"/>
    <random-depart value="True"/>
</configuration>
-->

<!-- generated on 2024-08-13 09:40:18 by Eclipse SUMO duarouter Version 1.20.0
<configuration xmlns:xsi="http://www.w3.org/2001/XMLSchema-instance" xsi:noNamespaceSchemaLocation="http://sumo.dlr.de/xsd/duarouterConfiguration.xsd">

    <input>
        <net-file value="highway.net.xml"/>
        <route-files value="car.trips.xml"/>
    </input>

    <output>
        <output-file value="car.trips.xml.tmp"/>
        <alternatives-output value="NUL"/>
        <write-trips value="true"/>
    </output>

    <time>
        <begin value="0"/>
        <end value="754.0"/>
    </time>

    <report>
        <no-warnings value="true"/>
        <ignore-errors value="true"/>
        <no-step-log value="true"/>
    </report>

</configuration>
-->

<routes xmlns:xsi="http://www.w3.org/2001/XMLSchema-instance" xsi:noNamespaceSchemaLocation="http://sumo.dlr.de/xsd/routes_file.xsd">
    <trip id="car0" type="car0" depart="0.24" departLane="best" departSpeed="5.00" from="E1" to="E3.123"/>
    <trip id="car1" type="car1" depart="0.73" departLane="best" departSpeed="5.00" from="E1" to="E3.123"/>
    <trip id="car2" type="car2" depart="0.98" departLane="best" departSpeed="5.00" from="E1" to="E3.123"/>
    <trip id="car3" type="car3" depart="1.36" departLane="best" departSpeed="5.00" from="E1" to="E3.123"/>
    <trip id="car4" type="car4" depart="1.40" departLane="best" departSpeed="5.00" from="E2" to="E3.123"/>
    <trip id="car5" type="car5" depart="1.45" departLane="best" departSpeed="5.00" from="E1" to="E3.123"/>
    <trip id="car6" type="car6" depart="1.48" departLane="best" departSpeed="5.00" from="E1" to="E3.123"/>
    <trip id="car7" type="car7" depart="1.50" departLane="best" departSpeed="5.00" from="E1" to="E3.123"/>
    <trip id="car8" type="car8" depart="1.52" departLane="best" departSpeed="5.00" from="E1" to="E3.123"/>
    <trip id="car9" type="car9" depart="2.14" departLane="best" departSpeed="5.00" from="E2" to="E3.123"/>
    <trip id="car10" type="car10" depart="2.98" departLane="best" departSpeed="5.00" from="E1" to="E3.123"/>
    <trip id="car11" type="car11" depart="3.00" departLane="best" departSpeed="5.00" from="E2" to="E3.123"/>
    <trip id="car12" type="car12" depart="3.12" departLane="best" departSpeed="5.00" from="E2" to="E3.123"/>
    <trip id="car13" type="car13" depart="3.14" departLane="best" departSpeed="5.00" from="E2" to="E3.123"/>
    <trip id="car14" type="car14" depart="4.02" departLane="best" departSpeed="5.00" from="E1" to="E3.123"/>
    <trip id="car15" type="car15" depart="4.07" departLane="best" departSpeed="5.00" from="E1" to="E3.123"/>
    <trip id="car16" type="car16" depart="4.32" departLane="best" departSpeed="5.00" from="E2" to="E3.123"/>
    <trip id="car17" type="car17" depart="4.68" departLane="best" departSpeed="5.00" from="E1" to="E3.123"/>
    <trip id="car18" type="car18" depart="5.08" departLane="best" departSpeed="5.00" from="E2" to="E3.123"/>
    <trip id="car19" type="car19" depart="5.08" departLane="best" departSpeed="5.00" from="E2" to="E3.123"/>
    <trip id="car20" type="car20" depart="5.69" departLane="best" departSpeed="5.00" from="E1" to="E3.123"/>
    <trip id="car21" type="car21" depart="5.99" departLane="best" departSpeed="5.00" from="E1" to="E3.123"/>
    <trip id="car22" type="car22" depart="6.45" departLane="best" departSpeed="5.00" from="E1" to="E3.123"/>
    <trip id="car23" type="car23" depart="6.83" departLane="best" departSpeed="5.00" from="E2" to="E3.123"/>
    <trip id="car24" type="car24" depart="6.97" departLane="best" departSpeed="5.00" from="E2" to="E3.123"/>
    <trip id="car25" type="car25" depart="7.04" departLane="best" departSpeed="5.00" from="E2" to="E3.123"/>
    <trip id="car26" type="car26" depart="7.56" departLane="best" departSpeed="5.00" from="E1" to="E3.123"/>
    <trip id="car27" type="car27" depart="7.70" departLane="best" departSpeed="5.00" from="E2" to="E3.123"/>
    <trip id="car28" type="car28" depart="8.13" departLane="best" departSpeed="5.00" from="E1" to="E3.123"/>
    <trip id="car29" type="car29" depart="8.17" departLane="best" departSpeed="5.00" from="E2" to="E3.123"/>
    <trip id="car30" type="car30" depart="8.19" departLane="best" departSpeed="5.00" from="E1" to="E3.123"/>
    <trip id="car31" type="car31" depart="8.34" departLane="best" departSpeed="5.00" from="E2" to="E3.123"/>
    <trip id="car32" type="car32" depart="8.66" departLane="best" departSpeed="5.00" from="E1" to="E3.123"/>
    <trip id="car33" type="car33" depart="8.68" departLane="best" departSpeed="5.00" from="E2" to="E3.123"/>
    <trip id="car34" type="car34" depart="9.06" departLane="best" departSpeed="5.00" from="E1" to="E3.123"/>
    <trip id="car35" type="car35" depart="10.43" departLane="best" departSpeed="5.00" from="E1" to="E3.123"/>
    <trip id="car36" type="car36" depart="10.51" departLane="best" departSpeed="5.00" from="E1" to="E3.123"/>
    <trip id="car37" type="car37" depart="11.08" departLane="best" departSpeed="5.00" from="E2" to="E3.123"/>
    <trip id="car38" type="car38" depart="11.48" departLane="best" departSpeed="5.00" from="E2" to="E3.123"/>
    <trip id="car39" type="car39" depart="12.76" departLane="best" departSpeed="5.00" from="E1" to="E3.123"/>
    <trip id="car40" type="car40" depart="12.76" departLane="best" departSpeed="5.00" from="E1" to="E3.123"/>
    <trip id="car41" type="car41" depart="13.17" departLane="best" departSpeed="5.00" from="E1" to="E3.123"/>
    <trip id="car42" type="car42" depart="13.24" departLane="best" departSpeed="5.00" from="E1" to="E3.123"/>
    <trip id="car43" type="car43" depart="13.32" departLane="best" departSpeed="5.00" from="E2" to="E3.123"/>
    <trip id="car44" type="car44" depart="13.38" departLane="best" departSpeed="5.00" from="E2" to="E3.123"/>
    <trip id="car45" type="car45" depart="13.76" departLane="best" departSpeed="5.00" from="E1" to="E3.123"/>
    <trip id="car46" type="car46" depart="13.85" departLane="best" departSpeed="5.00" from="E1" to="E3.123"/>
    <trip id="car47" type="car47" depart="14.00" departLane="best" departSpeed="5.00" from="E1" to="E3.123"/>
    <trip id="car48" type="car48" depart="14.29" departLane="best" departSpeed="5.00" from="E1" to="E3.123"/>
    <trip id="car49" type="car49" depart="14.37" departLane="best" departSpeed="5.00" from="E1" to="E3.123"/>
    <trip id="car50" type="car50" depart="15.07" departLane="best" departSpeed="5.00" from="E2" to="E3.123"/>
    <trip id="car51" type="car51" depart="15.12" departLane="best" departSpeed="5.00" from="E1" to="E3.123"/>
    <trip id="car52" type="car52" depart="15.20" departLane="best" departSpeed="5.00" from="E1" to="E3.123"/>
    <trip id="car53" type="car53" depart="15.27" departLane="best" departSpeed="5.00" from="E1" to="E3.123"/>
    <trip id="car54" type="car54" depart="15.46" departLane="best" departSpeed="5.00" from="E1" to="E3.123"/>
    <trip id="car55" type="car55" depart="16.13" departLane="best" departSpeed="5.00" from="E2" to="E3.123"/>
    <trip id="car56" type="car56" depart="16.34" departLane="best" departSpeed="5.00" from="E2" to="E3.123"/>
    <trip id="car57" type="car57" depart="16.52" departLane="best" departSpeed="5.00" from="E1" to="E3.123"/>
    <trip id="car58" type="car58" depart="16.61" departLane="best" departSpeed="5.00" from="E1" to="E3.123"/>
    <trip id="car59" type="car59" depart="16.62" departLane="best" departSpeed="5.00" from="E1" to="E3.123"/>
    <trip id="car60" type="car60" depart="16.92" departLane="best" departSpeed="5.00" from="E1" to="E3.123"/>
    <trip id="car61" type="car61" depart="17.50" departLane="best" departSpeed="5.00" from="E1" to="E3.123"/>
    <trip id="car62" type="car62" depart="17.56" departLane="best" departSpeed="5.00" from="E1" to="E3.123"/>
    <trip id="car63" type="car63" depart="18.00" departLane="best" departSpeed="5.00" from="E1" to="E3.123"/>
    <trip id="car64" type="car64" depart="18.24" departLane="best" departSpeed="5.00" from="E2" to="E3.123"/>
    <trip id="car65" type="car65" depart="18.39" departLane="best" departSpeed="5.00" from="E1" to="E3.123"/>
    <trip id="car66" type="car66" depart="18.45" departLane="best" departSpeed="5.00" from="E1" to="E3.123"/>
    <trip id="car67" type="car67" depart="18.64" departLane="best" departSpeed="5.00" from="E1" to="E3.123"/>
    <trip id="car68" type="car68" depart="18.88" departLane="best" departSpeed="5.00" from="E1" to="E3.123"/>
    <trip id="car69" type="car69" depart="18.89" departLane="best" departSpeed="5.00" from="E1" to="E3.123"/>
    <trip id="car70" type="car70" depart="19.76" departLane="best" departSpeed="5.00" from="E2" to="E3.123"/>
    <trip id="car71" type="car71" depart="20.42" departLane="best" departSpeed="5.00" from="E2" to="E3.123"/>
    <trip id="car72" type="car72" depart="20.70" departLane="best" departSpeed="5.00" from="E2" to="E3.123"/>
    <trip id="car73" type="car73" depart="21.03" departLane="best" departSpeed="5.00" from="E1" to="E3.123"/>
    <trip id="car74" type="car74" depart="21.22" departLane="best" departSpeed="5.00" from="E2" to="E3.123"/>
    <trip id="car75" type="car75" depart="21.24" departLane="best" departSpeed="5.00" from="E2" to="E3.123"/>
    <trip id="car76" type="car76" depart="21.47" departLane="best" departSpeed="5.00" from="E2" to="E3.123"/>
    <trip id="car77" type="car77" depart="22.01" departLane="best" departSpeed="5.00" from="E1" to="E3.123"/>
    <trip id="car78" type="car78" depart="22.21" departLane="best" departSpeed="5.00" from="E2" to="E3.123"/>
    <trip id="car79" type="car79" depart="22.51" departLane="best" departSpeed="5.00" from="E2" to="E3.123"/>
    <trip id="car80" type="car80" depart="22.77" departLane="best" departSpeed="5.00" from="E2" to="E3.123"/>
    <trip id="car81" type="car81" depart="23.07" departLane="best" departSpeed="5.00" from="E1" to="E3.123"/>
    <trip id="car82" type="car82" depart="23.13" departLane="best" departSpeed="5.00" from="E2" to="E3.123"/>
    <trip id="car83" type="car83" depart="23.18" departLane="best" departSpeed="5.00" from="E1" to="E3.123"/>
    <trip id="car84" type="car84" depart="23.76" departLane="best" departSpeed="5.00" from="E1" to="E3.123"/>
    <trip id="car85" type="car85" depart="23.80" departLane="best" departSpeed="5.00" from="E1" to="E3.123"/>
    <trip id="car86" type="car86" depart="23.82" departLane="best" departSpeed="5.00" from="E1" to="E3.123"/>
    <trip id="car87" type="car87" depart="24.12" departLane="best" departSpeed="5.00" from="E1" to="E3.123"/>
    <trip id="car88" type="car88" depart="24.33" departLane="best" departSpeed="5.00" from="E1" to="E3.123"/>
    <trip id="car89" type="car89" depart="24.65" departLane="best" departSpeed="5.00" from="E1" to="E3.123"/>
    <trip id="car90" type="car90" depart="24.71" departLane="best" departSpeed="5.00" from="E2" to="E3.123"/>
    <trip id="car91" type="car91" depart="24.85" departLane="best" departSpeed="5.00" from="E1" to="E3.123"/>
    <trip id="car92" type="car92" depart="24.91" departLane="best" departSpeed="5.00" from="E1" to="E3.123"/>
    <trip id="car93" type="car93" depart="25.35" departLane="best" departSpeed="5.00" from="E1" to="E3.123"/>
    <trip id="car94" type="car94" depart="26.31" departLane="best" departSpeed="5.00" from="E2" to="E3.123"/>
    <trip id="car95" type="car95" depart="26.47" departLane="best" departSpeed="5.00" from="E1" to="E3.123"/>
    <trip id="car96" type="car96" depart="26.69" departLane="best" departSpeed="5.00" from="E1" to="E3.123"/>
    <trip id="car97" type="car97" depart="26.99" departLane="best" departSpeed="5.00" from="E1" to="E3.123"/>
    <trip id="car98" type="car98" depart="27.13" departLane="best" departSpeed="5.00" from="E1" to="E3.123"/>
    <trip id="car99" type="car99" depart="27.24" departLane="best" departSpeed="5.00" from="E1" to="E3.123"/>
    <trip id="car100" type="car100" depart="27.29" departLane="best" departSpeed="5.00" from="E1" to="E3.123"/>
    <trip id="car101" type="car101" depart="27.40" departLane="best" departSpeed="5.00" from="E2" to="E3.123"/>
    <trip id="car102" type="car102" depart="28.62" departLane="best" departSpeed="5.00" from="E1" to="E3.123"/>
    <trip id="car103" type="car103" depart="29.01" departLane="best" departSpeed="5.00" from="E1" to="E3.123"/>
    <trip id="car104" type="car104" depart="29.02" departLane="best" departSpeed="5.00" from="E2" to="E3.123"/>
    <trip id="car105" type="car105" depart="29.55" departLane="best" departSpeed="5.00" from="E2" to="E3.123"/>
    <trip id="car106" type="car106" depart="29.99" departLane="best" departSpeed="5.00" from="E1" to="E3.123"/>
    <trip id="car107" type="car107" depart="30.16" departLane="best" departSpeed="5.00" from="E1" to="E3.123"/>
    <trip id="car108" type="car108" depart="30.33" departLane="best" departSpeed="5.00" from="E1" to="E3.123"/>
    <trip id="car109" type="car109" depart="30.73" departLane="best" departSpeed="5.00" from="E1" to="E3.123"/>
    <trip id="car110" type="car110" depart="30.94" departLane="best" departSpeed="5.00" from="E1" to="E3.123"/>
    <trip id="car111" type="car111" depart="31.05" departLane="best" departSpeed="5.00" from="E1" to="E3.123"/>
    <trip id="car112" type="car112" depart="31.12" departLane="best" departSpeed="5.00" from="E2" to="E3.123"/>
    <trip id="car113" type="car113" depart="31.21" departLane="best" departSpeed="5.00" from="E1" to="E3.123"/>
    <trip id="car114" type="car114" depart="31.23" departLane="best" departSpeed="5.00" from="E2" to="E3.123"/>
    <trip id="car115" type="car115" depart="31.72" departLane="best" departSpeed="5.00" from="E2" to="E3.123"/>
    <trip id="car116" type="car116" depart="32.00" departLane="best" departSpeed="5.00" from="E1" to="E3.123"/>
    <trip id="car117" type="car117" depart="32.08" departLane="best" departSpeed="5.00" from="E1" to="E3.123"/>
    <trip id="car118" type="car118" depart="32.54" departLane="best" departSpeed="5.00" from="E1" to="E3.123"/>
    <trip id="car119" type="car119" depart="32.59" departLane="best" departSpeed="5.00" from="E1" to="E3.123"/>
    <trip id="car120" type="car120" depart="32.74" departLane="best" departSpeed="5.00" from="E1" to="E3.123"/>
    <trip id="car121" type="car121" depart="33.07" departLane="best" departSpeed="5.00" from="E1" to="E3.123"/>
    <trip id="car122" type="car122" depart="33.49" departLane="best" departSpeed="5.00" from="E2" to="E3.123"/>
    <trip id="car123" type="car123" depart="33.73" departLane="best" departSpeed="5.00" from="E1" to="E3.123"/>
    <trip id="car124" type="car124" depart="33.98" departLane="best" departSpeed="5.00" from="E1" to="E3.123"/>
    <trip id="car125" type="car125" depart="34.13" departLane="best" departSpeed="5.00" from="E1" to="E3.123"/>
    <trip id="car126" type="car126" depart="34.15" departLane="best" departSpeed="5.00" from="E1" to="E3.123"/>
    <trip id="car127" type="car127" depart="34.36" departLane="best" departSpeed="5.00" from="E1" to="E3.123"/>
    <trip id="car128" type="car128" depart="34.56" departLane="best" departSpeed="5.00" from="E1" to="E3.123"/>
    <trip id="car129" type="car129" depart="34.83" departLane="best" departSpeed="5.00" from="E2" to="E3.123"/>
    <trip id="car130" type="car130" depart="35.21" departLane="best" departSpeed="5.00" from="E1" to="E3.123"/>
    <trip id="car131" type="car131" depart="35.89" departLane="best" departSpeed="5.00" from="E1" to="E3.123"/>
    <trip id="car132" type="car132" depart="36.27" departLane="best" departSpeed="5.00" from="E1" to="E3.123"/>
    <trip id="car133" type="car133" depart="36.37" departLane="best" departSpeed="5.00" from="E1" to="E3.123"/>
    <trip id="car134" type="car134" depart="36.46" departLane="best" departSpeed="5.00" from="E1" to="E3.123"/>
    <trip id="car135" type="car135" depart="36.55" departLane="best" departSpeed="5.00" from="E2" to="E3.123"/>
    <trip id="car136" type="car136" depart="36.62" departLane="best" departSpeed="5.00" from="E1" to="E3.123"/>
    <trip id="car137" type="car137" depart="36.71" departLane="best" departSpeed="5.00" from="E2" to="E3.123"/>
    <trip id="car138" type="car138" depart="37.02" departLane="best" departSpeed="5.00" from="E2" to="E3.123"/>
    <trip id="car139" type="car139" depart="37.26" departLane="best" departSpeed="5.00" from="E2" to="E3.123"/>
    <trip id="car140" type="car140" depart="37.73" departLane="best" departSpeed="5.00" from="E1" to="E3.123"/>
    <trip id="car141" type="car141" depart="37.86" departLane="best" departSpeed="5.00" from="E1" to="E3.123"/>
    <trip id="car142" type="car142" depart="38.44" departLane="best" departSpeed="5.00" from="E1" to="E3.123"/>
    <trip id="car143" type="car143" depart="38.59" departLane="best" departSpeed="5.00" from="E1" to="E3.123"/>
    <trip id="car144" type="car144" depart="38.61" departLane="best" departSpeed="5.00" from="E1" to="E3.123"/>
    <trip id="car145" type="car145" depart="38.63" departLane="best" departSpeed="5.00" from="E1" to="E3.123"/>
    <trip id="car146" type="car146" depart="38.70" departLane="best" departSpeed="5.00" from="E1" to="E3.123"/>
    <trip id="car147" type="car147" depart="39.11" departLane="best" departSpeed="5.00" from="E1" to="E3.123"/>
    <trip id="car148" type="car148" depart="40.39" departLane="best" departSpeed="5.00" from="E1" to="E3.123"/>
    <trip id="car149" type="car149" depart="40.42" departLane="best" departSpeed="5.00" from="E1" to="E3.123"/>
    <trip id="car150" type="car150" depart="40.44" departLane="best" departSpeed="5.00" from="E2" to="E3.123"/>
    <trip id="car151" type="car151" depart="40.58" departLane="best" departSpeed="5.00" from="E1" to="E3.123"/>
    <trip id="car152" type="car152" depart="40.64" departLane="best" departSpeed="5.00" from="E2" to="E3.123"/>
    <trip id="car153" type="car153" depart="41.15" departLane="best" departSpeed="5.00" from="E1" to="E3.123"/>
    <trip id="car154" type="car154" depart="41.64" departLane="best" departSpeed="5.00" from="E1" to="E3.123"/>
    <trip id="car155" type="car155" depart="41.82" departLane="best" departSpeed="5.00" from="E1" to="E3.123"/>
    <trip id="car156" type="car156" depart="42.23" departLane="best" departSpeed="5.00" from="E1" to="E3.123"/>
    <trip id="car157" type="car157" depart="42.58" departLane="best" departSpeed="5.00" from="E1" to="E3.123"/>
    <trip id="car158" type="car158" depart="42.71" departLane="best" departSpeed="5.00" from="E2" to="E3.123"/>
    <trip id="car159" type="car159" depart="42.77" departLane="best" departSpeed="5.00" from="E1" to="E3.123"/>
    <trip id="car160" type="car160" depart="43.06" departLane="best" departSpeed="5.00" from="E2" to="E3.123"/>
    <trip id="car161" type="car161" depart="43.21" departLane="best" departSpeed="5.00" from="E1" to="E3.123"/>
    <trip id="car162" type="car162" depart="43.42" departLane="best" departSpeed="5.00" from="E1" to="E3.123"/>
    <trip id="car163" type="car163" depart="43.45" departLane="best" departSpeed="5.00" from="E1" to="E3.123"/>
    <trip id="car164" type="car164" depart="43.60" departLane="best" departSpeed="5.00" from="E1" to="E3.123"/>
    <trip id="car165" type="car165" depart="43.75" departLane="best" departSpeed="5.00" from="E1" to="E3.123"/>
    <trip id="car166" type="car166" depart="43.76" departLane="best" departSpeed="5.00" from="E1" to="E3.123"/>
    <trip id="car167" type="car167" depart="43.81" departLane="best" departSpeed="5.00" from="E2" to="E3.123"/>
    <trip id="car168" type="car168" depart="44.27" departLane="best" departSpeed="5.00" from="E1" to="E3.123"/>
    <trip id="car169" type="car169" depart="45.24" departLane="best" departSpeed="5.00" from="E1" to="E3.123"/>
    <trip id="car170" type="car170" depart="45.78" departLane="best" departSpeed="5.00" from="E2" to="E3.123"/>
    <trip id="car171" type="car171" depart="46.04" departLane="best" departSpeed="5.00" from="E1" to="E3.123"/>
    <trip id="car172" type="car172" depart="46.22" departLane="best" departSpeed="5.00" from="E1" to="E3.123"/>
    <trip id="car173" type="car173" depart="46.95" departLane="best" departSpeed="5.00" from="E1" to="E3.123"/>
    <trip id="car174" type="car174" depart="47.24" departLane="best" departSpeed="5.00" from="E1" to="E3.123"/>
    <trip id="car175" type="car175" depart="47.72" departLane="best" departSpeed="5.00" from="E1" to="E3.123"/>
    <trip id="car176" type="car176" depart="47.89" departLane="best" departSpeed="5.00" from="E1" to="E3.123"/>
    <trip id="car177" type="car177" depart="48.20" departLane="best" departSpeed="5.00" from="E2" to="E3.123"/>
    <trip id="car178" type="car178" depart="48.40" departLane="best" departSpeed="5.00" from="E1" to="E3.123"/>
    <trip id="car179" type="car179" depart="49.16" departLane="best" departSpeed="5.00" from="E2" to="E3.123"/>
    <trip id="car180" type="car180" depart="49.23" departLane="best" departSpeed="5.00" from="E1" to="E3.123"/>
    <trip id="car181" type="car181" depart="49.60" departLane="best" departSpeed="5.00" from="E1" to="E3.123"/>
    <trip id="car182" type="car182" depart="49.94" departLane="best" departSpeed="5.00" from="E2" to="E3.123"/>
    <trip id="car183" type="car183" depart="50.12" departLane="best" departSpeed="5.00" from="E2" to="E3.123"/>
    <trip id="car184" type="car184" depart="50.56" departLane="best" departSpeed="5.00" from="E1" to="E3.123"/>
    <trip id="car185" type="car185" depart="51.05" departLane="best" departSpeed="5.00" from="E1" to="E3.123"/>
    <trip id="car186" type="car186" depart="51.11" departLane="best" departSpeed="5.00" from="E2" to="E3.123"/>
    <trip id="car187" type="car187" depart="51.11" departLane="best" departSpeed="5.00" from="E2" to="E3.123"/>
    <trip id="car188" type="car188" depart="51.36" departLane="best" departSpeed="5.00" from="E2" to="E3.123"/>
    <trip id="car189" type="car189" depart="51.45" departLane="best" departSpeed="5.00" from="E1" to="E3.123"/>
    <trip id="car190" type="car190" depart="51.91" departLane="best" departSpeed="5.00" from="E1" to="E3.123"/>
    <trip id="car191" type="car191" depart="52.70" departLane="best" departSpeed="5.00" from="E1" to="E3.123"/>
    <trip id="car192" type="car192" depart="52.89" departLane="best" departSpeed="5.00" from="E1" to="E3.123"/>
    <trip id="car193" type="car193" depart="53.00" departLane="best" departSpeed="5.00" from="E1" to="E3.123"/>
    <trip id="car194" type="car194" depart="53.17" departLane="best" departSpeed="5.00" from="E1" to="E3.123"/>
    <trip id="car195" type="car195" depart="53.35" departLane="best" departSpeed="5.00" from="E1" to="E3.123"/>
    <trip id="car196" type="car196" depart="53.36" departLane="best" departSpeed="5.00" from="E2" to="E3.123"/>
    <trip id="car197" type="car197" depart="53.50" departLane="best" departSpeed="5.00" from="E1" to="E3.123"/>
    <trip id="car198" type="car198" depart="53.75" departLane="best" departSpeed="5.00" from="E1" to="E3.123"/>
    <trip id="car199" type="car199" depart="54.22" departLane="best" departSpeed="5.00" from="E2" to="E3.123"/>
    <trip id="car200" type="car200" depart="54.37" departLane="best" departSpeed="5.00" from="E1" to="E3.123"/>
    <trip id="car201" type="car201" depart="54.52" departLane="best" departSpeed="5.00" from="E1" to="E3.123"/>
    <trip id="car202" type="car202" depart="54.57" departLane="best" departSpeed="5.00" from="E2" to="E3.123"/>
    <trip id="car203" type="car203" depart="54.62" departLane="best" departSpeed="5.00" from="E1" to="E3.123"/>
    <trip id="car204" type="car204" depart="54.81" departLane="best" departSpeed="5.00" from="E1" to="E3.123"/>
    <trip id="car205" type="car205" depart="55.21" departLane="best" departSpeed="5.00" from="E1" to="E3.123"/>
    <trip id="car206" type="car206" depart="55.72" departLane="best" departSpeed="5.00" from="E1" to="E3.123"/>
    <trip id="car207" type="car207" depart="55.79" departLane="best" departSpeed="5.00" from="E2" to="E3.123"/>
    <trip id="car208" type="car208" depart="55.96" departLane="best" departSpeed="5.00" from="E1" to="E3.123"/>
    <trip id="car209" type="car209" depart="56.05" departLane="best" departSpeed="5.00" from="E1" to="E3.123"/>
    <trip id="car210" type="car210" depart="56.13" departLane="best" departSpeed="5.00" from="E1" to="E3.123"/>
    <trip id="car211" type="car211" depart="56.27" departLane="best" departSpeed="5.00" from="E2" to="E3.123"/>
    <trip id="car212" type="car212" depart="56.33" departLane="best" departSpeed="5.00" from="E2" to="E3.123"/>
    <trip id="car213" type="car213" depart="56.38" departLane="best" departSpeed="5.00" from="E1" to="E3.123"/>
    <trip id="car214" type="car214" depart="56.55" departLane="best" departSpeed="5.00" from="E2" to="E3.123"/>
    <trip id="car215" type="car215" depart="56.93" departLane="best" departSpeed="5.00" from="E1" to="E3.123"/>
    <trip id="car216" type="car216" depart="57.35" departLane="best" departSpeed="5.00" from="E1" to="E3.123"/>
    <trip id="car217" type="car217" depart="57.73" departLane="best" departSpeed="5.00" from="E1" to="E3.123"/>
    <trip id="car218" type="car218" depart="58.32" departLane="best" departSpeed="5.00" from="E1" to="E3.123"/>
    <trip id="car219" type="car219" depart="59.03" departLane="best" departSpeed="5.00" from="E1" to="E3.123"/>
    <trip id="car220" type="car220" depart="59.21" departLane="best" departSpeed="5.00" from="E2" to="E3.123"/>
    <trip id="car221" type="car221" depart="59.37" departLane="best" departSpeed="5.00" from="E2" to="E3.123"/>
    <trip id="car222" type="car222" depart="59.56" departLane="best" departSpeed="5.00" from="E2" to="E3.123"/>
    <trip id="car223" type="car223" depart="59.64" departLane="best" departSpeed="5.00" from="E1" to="E3.123"/>
    <trip id="car224" type="car224" depart="59.74" departLane="best" departSpeed="5.00" from="E2" to="E3.123"/>
    <trip id="car225" type="car225" depart="59.94" departLane="best" departSpeed="5.00" from="E1" to="E3.123"/>
    <trip id="car226" type="car226" depart="60.92" departLane="best" departSpeed="5.00" from="E1" to="E3.123"/>
    <trip id="car227" type="car227" depart="61.04" departLane="best" departSpeed="5.00" from="E1" to="E3.123"/>
    <trip id="car228" type="car228" depart="61.15" departLane="best" departSpeed="5.00" from="E1" to="E3.123"/>
    <trip id="car229" type="car229" depart="61.43" departLane="best" departSpeed="5.00" from="E2" to="E3.123"/>
    <trip id="car230" type="car230" depart="61.44" departLane="best" departSpeed="5.00" from="E1" to="E3.123"/>
    <trip id="car231" type="car231" depart="61.45" departLane="best" departSpeed="5.00" from="E1" to="E3.123"/>
    <trip id="car232" type="car232" depart="61.75" departLane="best" departSpeed="5.00" from="E1" to="E3.123"/>
    <trip id="car233" type="car233" depart="61.87" departLane="best" departSpeed="5.00" from="E1" to="E3.123"/>
    <trip id="car234" type="car234" depart="61.92" departLane="best" departSpeed="5.00" from="E1" to="E3.123"/>
    <trip id="car235" type="car235" depart="62.11" departLane="best" departSpeed="5.00" from="E1" to="E3.123"/>
    <trip id="car236" type="car236" depart="62.19" departLane="best" departSpeed="5.00" from="E1" to="E3.123"/>
    <trip id="car237" type="car237" depart="62.23" departLane="best" departSpeed="5.00" from="E2" to="E3.123"/>
    <trip id="car238" type="car238" depart="62.33" departLane="best" departSpeed="5.00" from="E2" to="E3.123"/>
    <trip id="car239" type="car239" depart="62.44" departLane="best" departSpeed="5.00" from="E1" to="E3.123"/>
    <trip id="car240" type="car240" depart="62.66" departLane="best" departSpeed="5.00" from="E1" to="E3.123"/>
    <trip id="car241" type="car241" depart="63.12" departLane="best" departSpeed="5.00" from="E1" to="E3.123"/>
    <trip id="car242" type="car242" depart="63.42" departLane="best" departSpeed="5.00" from="E1" to="E3.123"/>
    <trip id="car243" type="car243" depart="63.47" departLane="best" departSpeed="5.00" from="E1" to="E3.123"/>
    <trip id="car244" type="car244" depart="63.80" departLane="best" departSpeed="5.00" from="E2" to="E3.123"/>
    <trip id="car245" type="car245" depart="63.95" departLane="best" departSpeed="5.00" from="E2" to="E3.123"/>
    <trip id="car246" type="car246" depart="64.74" departLane="best" departSpeed="5.00" from="E2" to="E3.123"/>
    <trip id="car247" type="car247" depart="64.76" departLane="best" departSpeed="5.00" from="E2" to="E3.123"/>
    <trip id="car248" type="car248" depart="64.94" departLane="best" departSpeed="5.00" from="E1" to="E3.123"/>
    <trip id="car249" type="car249" depart="65.41" departLane="best" departSpeed="5.00" from="E1" to="E3.123"/>
    <trip id="car250" type="car250" depart="65.49" departLane="best" departSpeed="5.00" from="E2" to="E3.123"/>
    <trip id="car251" type="car251" depart="66.13" departLane="best" departSpeed="5.00" from="E1" to="E3.123"/>
    <trip id="car252" type="car252" depart="66.22" departLane="best" departSpeed="5.00" from="E1" to="E3.123"/>
    <trip id="car253" type="car253" depart="66.41" departLane="best" departSpeed="5.00" from="E1" to="E3.123"/>
    <trip id="car254" type="car254" depart="66.48" departLane="best" departSpeed="5.00" from="E2" to="E3.123"/>
    <trip id="car255" type="car255" depart="66.51" departLane="best" departSpeed="5.00" from="E2" to="E3.123"/>