<?xml version="1.0" encoding="UTF-8"?>

<!-- generated on 2024-08-09 16:33:09 by Eclipse SUMO netedit Version 1.20.0
<configuration xmlns:xsi="http://www.w3.org/2001/XMLSchema-instance" xsi:noNamespaceSchemaLocation="http://sumo.dlr.de/xsd/neteditConfiguration.xsd">

    <input>
        <sumo-net-file value="highway.net.xml"/>
    </input>

    <output>
        <output-file value="highway.net.xml"/>
    </output>

    <processing>
        <geometry.min-radius.fix.railways value="false"/>
        <geometry.max-grade.fix value="false"/>
        <offset.disable-normalization value="true"/>
        <lefthand value="0"/>
    </processing>

    <junctions>
        <no-turnarounds value="true"/>
        <junctions.corner-detail value="5"/>
        <junctions.limit-turn-speed value="5.50"/>
        <rectangular-lane-cut value="0"/>
    </junctions>

    <pedestrian>
        <walkingareas value="0"/>
    </pedestrian>

</configuration>
-->

<net version="1.20" junctionCornerDetail="5" limitTurnSpeed="5.50" xmlns:xsi="http://www.w3.org/2001/XMLSchema-instance" xsi:noNamespaceSchemaLocation="http://sumo.dlr.de/xsd/net_file.xsd">

    <location netOffset="0.00,0.00" convBoundary="-398.86,-104.77,197.33,7.60" origBoundary="-10000000000.00,-10000000000.00,10000000000.00,10000000000.00" projParameter="!"/>

    <edge id=":J0_0" function="internal">
        <lane id=":J0_0_0" index="0" speed="33.89" length="8.40" shape="86.32,-9.93 88.77,-9.37 90.28,-8.22 91.79,-7.08 94.24,-6.51"/>
        <lane id=":J0_0_1" index="1" speed="33.89" length="8.40" shape="86.23,-6.73 94.24,-6.51"/>
        <lane id=":J0_0_2" index="2" speed="33.89" length="8.40" shape="86.23,-6.73 88.68,-6.17 90.19,-5.03 91.70,-3.88 94.15,-3.31"/>
        <lane id=":J0_0_3" index="3" speed="33.89" length="8.40" shape="86.15,-3.53 94.15,-3.31"/>
        <lane id=":J0_0_4" index="4" speed="33.89" length="8.40" shape="86.15,-3.53 88.59,-2.97 90.10,-1.83 91.61,-0.68 94.06,-0.12"/>
        <lane id=":J0_0_5" index="5" speed="33.89" length="8.40" shape="86.06,-0.33 94.06,-0.12"/>
        <lane id=":J0_0_6" index="6" speed="33.89" length="8.40" shape="86.06,-0.33 88.51,0.23 90.01,1.37 91.52,2.51 93.97,3.08"/>
        <lane id=":J0_0_7" index="7" speed="33.89" length="8.40" shape="85.98,2.87 93.97,3.08"/>
    </edge>
    <edge id=":J2_0" function="internal">
        <lane id=":J2_0_0" index="0" speed="35.89" length="23.89" shape="-93.30,-20.06 -87.41,-17.87 -82.86,-16.03 -77.90,-14.70 -70.83,-14.07"/>
        <lane id=":J2_0_1" index="1" speed="35.89" length="23.89" shape="-94.28,-17.01 -88.32,-14.80 -83.56,-12.91 -78.32,-11.53 -70.91,-10.87"/>
    </edge>
    <edge id=":J2_2" function="internal">
        <lane id=":J2_2_0" index="0" speed="33.89" length="24.55" shape="-95.05,-12.88 -70.91,-10.87"/>
        <lane id=":J2_2_1" index="1" speed="33.89" length="24.55" shape="-95.05,-12.88 -87.83,-11.83 -83.02,-10.15 -78.21,-8.53 -70.99,-7.67"/>
        <lane id=":J2_2_2" index="2" speed="33.89" length="24.55" shape="-95.22,-9.68 -70.99,-7.67"/>
        <lane id=":J2_2_3" index="3" speed="33.89" length="24.55" shape="-95.22,-9.68 -87.98,-8.64 -83.15,-6.95 -78.32,-5.33 -71.08,-4.47"/>
        <lane id=":J2_2_4" index="4" speed="33.89" length="24.55" shape="-95.38,-6.48 -71.08,-4.47"/>
        <lane id=":J2_2_5" index="5" speed="33.89" length="24.55" shape="-95.38,-6.48 -88.12,-5.44 -83.28,-3.76 -78.43,-2.13 -71.16,-1.27"/>
        <lane id=":J2_2_6" index="6" speed="33.89" length="24.55" shape="-95.55,-3.29 -71.16,-1.27"/>
    </edge>

    <edge id="E1" from="J1" to="J2" priority="-1" length="300.00">
        <lane id="E1_0" index="0" speed="33.89" length="300.00" shape="-398.27,-28.85 -95.05,-12.88"/>
        <lane id="E1_1" index="1" speed="33.89" length="300.00" shape="-398.44,-25.66 -95.22,-9.68"/>
        <lane id="E1_2" index="2" speed="33.89" length="300.00" shape="-398.61,-22.46 -95.38,-6.48"/>
        <lane id="E1_3" index="3" speed="33.89" length="300.00" shape="-398.78,-19.27 -95.55,-3.29"/>
    </edge>
    <edge id="E2" from="J4" to="J2" priority="-1" length="300.00">
        <lane id="E2_0" index="0" speed="37.89" length="300.00" shape="-370.34,-109.34 -93.30,-20.06"/>
        <lane id="E2_1" index="1" speed="37.89" length="300.00" shape="-371.32,-106.29 -94.28,-17.01"/>
    </edge>
    <edge id="E3" from="J2" to="J0" priority="-1" length="139.91">
        <lane id="E3_0" index="0" speed="33.89" length="139.91" acceleration="1" shape="-70.83,-14.07 86.32,-9.93"/>
        <lane id="E3_1" index="1" speed="33.89" length="139.91" shape="-70.91,-10.87 86.23,-6.73"/>
        <lane id="E3_2" index="2" speed="33.89" length="139.91" shape="-70.99,-7.67 86.15,-3.53"/>
        <lane id="E3_3" index="3" speed="33.89" length="139.91" shape="-71.08,-4.47 86.06,-0.33"/>
        <lane id="E3_4" index="4" speed="33.89" length="139.91" shape="-71.16,-1.27 85.98,2.87"/>
    </edge>
    <edge id="E3.123" from="J0" to="J3" priority="-1" length="130.37">
        <lane id="E3.123_0" index="0" speed="33.89" length="130.37" shape="94.24,-6.51 197.65,-3.60"/>
        <lane id="E3.123_1" index="1" speed="33.89" length="130.37" shape="94.15,-3.31 197.56,-0.40"/>
        <lane id="E3.123_2" index="2" speed="33.89" length="130.37" shape="94.06,-0.12 197.47,2.80"/>
        <lane id="E3.123_3" index="3" speed="33.89" length="130.37" shape="93.97,3.08 197.38,6.00"/>
    </edge>

    <junction id="J0" type="zipper" x="89.93" y="4.57" incLanes="E3_0 E3_1 E3_2 E3_3 E3_4" intLanes=":J0_0_0 :J0_0_1 :J0_0_2 :J0_0_3 :J0_0_4 :J0_0_5 :J0_0_6 :J0_0_7" shape="93.92,4.68 94.28,-8.11 91.27,-9.03 89.37,-10.62 88.14,-11.25 86.36,-11.53 85.94,4.46">
        <request index="0" response="00000010" foes="00000010" cont="0"/>
        <request index="1" response="00000001" foes="00000001" cont="0"/>
        <request index="2" response="00001000" foes="00001000" cont="0"/>
        <request index="3" response="00000100" foes="00000100" cont="0"/>
        <request index="4" response="00100000" foes="00100000" cont="0"/>
        <request index="5" response="00010000" foes="00010000" cont="0"/>
        <request index="6" response="10000000" foes="10000000" cont="0"/>
        <request index="7" response="01000000" foes="01000000" cont="0"/>
    </junction>
    <junction id="J1" type="dead_end" x="-398.86" y="-17.67" incLanes="" intLanes="" shape="-398.86,-17.67 -398.19,-30.45"/>
    <junction id="J2" type="zipper" x="-43.42" y="1.06" incLanes="E2_0 E2_1 E1_0 E1_1 E1_2 E1_3" intLanes=":J2_0_0 :J2_0_1 :J2_2_0 :J2_2_1 :J2_2_2 :J2_2_3 :J2_2_4 :J2_2_5 :J2_2_6" shape="-71.20,0.33 -70.78,-15.67 -75.62,-15.97 -79.15,-16.56 -82.00,-17.42 -84.81,-18.56 -88.20,-19.95 -92.81,-21.58 -94.78,-15.49 -94.96,-14.47 -95.64,-1.69">
        <request index="0" response="000000000" foes="000000000" cont="0"/>
        <request index="1" response="000000100" foes="000000100" cont="0"/>
        <request index="2" response="000000010" foes="000000010" cont="0"/>
        <request index="3" response="000010000" foes="000010000" cont="0"/>
        <request index="4" response="000001000" foes="000001000" cont="0"/>
        <request index="5" response="001000000" foes="001000000" cont="0"/>
        <request index="6" response="000100000" foes="000100000" cont="0"/>
        <request index="7" response="100000000" foes="100000000" cont="0"/>
        <request index="8" response="010000000" foes="010000000" cont="0"/>
    </junction>
    <junction id="J3" type="dead_end" x="197.33" y="7.60" incLanes="E3.123_0 E3.123_1 E3.123_2 E3.123_3" intLanes="" shape="197.69,-5.19 197.33,7.60"/>
    <junction id="J4" type="dead_end" x="-371.81" y="-104.77" incLanes="" intLanes="" shape="-371.81,-104.77 -369.85,-110.86"/>

    <connection from="E1" to="E3" fromLane="0" toLane="1" via=":J2_2_0" dir="s" state="Z"/>
    <connection from="E1" to="E3" fromLane="0" toLane="2" via=":J2_2_1" dir="s" state="Z"/>
    <connection from="E1" to="E3" fromLane="1" toLane="2" via=":J2_2_2" dir="s" state="Z"/>
    <connection from="E1" to="E3" fromLane="1" toLane="3" via=":J2_2_3" dir="s" state="Z"/>
    <connection from="E1" to="E3" fromLane="2" toLane="3" via=":J2_2_4" dir="s" state="Z"/>
    <connection from="E1" to="E3" fromLane="2" toLane="4" via=":J2_2_5" dir="s" state="Z"/>
    <connection from="E1" to="E3" fromLane="3" toLane="4" via=":J2_2_6" dir="s" state="Z"/>
    <connection from="E2" to="E3" fromLane="0" toLane="0" via=":J2_0_0" dir="s" state="M"/>
    <connection from="E2" to="E3" fromLane="1" toLane="1" via=":J2_0_1" dir="s" state="Z"/>
    <connection from="E3" to="E3.123" fromLane="0" toLane="0" via=":J0_0_0" dir="s" state="Z"/>
    <connection from="E3" to="E3.123" fromLane="1" toLane="0" via=":J0_0_1" dir="s" state="Z"/>
    <connection from="E3" to="E3.123" fromLane="1" toLane="1" via=":J0_0_2" dir="s" state="Z"/>
    <connection from="E3" to="E3.123" fromLane="2" toLane="1" via=":J0_0_3" dir="s" state="Z"/>
    <connection from="E3" to="E3.123" fromLane="2" toLane="2" via=":J0_0_4" dir="s" state="Z"/>
    <connection from="E3" to="E3.123" fromLane="3" toLane="2" via=":J0_0_5" dir="s" state="Z"/>
    <connection from="E3" to="E3.123" fromLane="3" toLane="3" via=":J0_0_6" dir="s" state="Z"/>
    <connection from="E3" to="E3.123" fromLane="4" toLane="3" via=":J0_0_7" dir="s" state="Z"/>

    <connection from=":J0_0" to="E3.123" fromLane="0" toLane="0" dir="s" state="M"/>
    <connection from=":J0_0" to="E3.123" fromLane="1" toLane="0" dir="s" state="M"/>
    <connection from=":J0_0" to="E3.123" fromLane="2" toLane="1" dir="s" state="M"/>
    <connection from=":J0_0" to="E3.123" fromLane="3" toLane="1" dir="s" state="M"/>
    <connection from=":J0_0" to="E3.123" fromLane="4" toLane="2" dir="s" state="M"/>
    <connection from=":J0_0" to="E3.123" fromLane="5" toLane="2" dir="s" state="M"/>
    <connection from=":J0_0" to="E3.123" fromLane="6" toLane="3" dir="s" state="M"/>
    <connection from=":J0_0" to="E3.123" fromLane="7" toLane="3" dir="s" state="M"/>
    <connection from=":J2_0" to="E3" fromLane="0" toLane="0" dir="s" state="M"/>
    <connection from=":J2_0" to="E3" fromLane="1" toLane="1" dir="s" state="M"/>
    <connection from=":J2_2" to="E3" fromLane="0" toLane="1" dir="s" state="M"/>
    <connection from=":J2_2" to="E3" fromLane="1" toLane="2" dir="s" state="M"/>
    <connection from=":J2_2" to="E3" fromLane="2" toLane="2" dir="s" state="M"/>
    <connection from=":J2_2" to="E3" fromLane="3" toLane="3" dir="s" state="M"/>
    <connection from=":J2_2" to="E3" fromLane="4" toLane="3" dir="s" state="M"/>
    <connection from=":J2_2" to="E3" fromLane="5" toLane="4" dir="s" state="M"/>
    <connection from=":J2_2" to="E3" fromLane="6" toLane="4" dir="s" state="M"/>

</net>
