<?xml version="1.0" ?>
<additional xmlns:xsi="http://www.w3.org/2001/XMLSchema-instance" xsi:noNamespaceSchemaLocation="http://sumo.dlr.de/xsd/additional_file.xsd">
	<vTypeDistribution id="car">
		<vType id="car0" tau="3.855" accel="0.347" decel="2.919" maxSpeed="7.730" carFollowModel="EIDM" sigma="0.543" lcSigma="0.182" lcSublane="0.865" lcPushy="0.221" lcAssertive="60.317" lcSpeedGainRight="4.596" vClass="passenger" lcStrategic="99.000" maxSpeedLat="3.500" lcKeepRight="0.000" lcOvertakeRight="0.000" lcCooperative="0.903" lcLookaheadLeft="88.270"/>
		<vType id="car1" tau="0.267" accel="0.347" decel="2.919" maxSpeed="25.509" carFollowModel="EIDM" sigma="0.543" lcSigma="0.182" lcSublane="0.865" lcPushy="0.221" lcAssertive="60.317" lcSpeedGainRight="4.596" vClass="passenger" lcStrategic="99.000" maxSpeedLat="3.500" lcKeepRight="0.000" lcOvertakeRight="0.000" lcCooperative="0.903" lcLookaheadLeft="88.270"/>
		<vType id="car2" tau="5.001" accel="0.347" decel="2.919" maxSpeed="22.184" carFollowModel="EIDM" sigma="0.543" lcSigma="0.182" lcSublane="0.865" lcPushy="0.221" lcAssertive="60.317" lcSpeedGainRight="4.596" vClass="passenger" lcStrategic="99.000" maxSpeedLat="3.500" lcKeepRight="0.000" lcOvertakeRight="0.000" lcCooperative="0.903" lcLookaheadLeft="88.270"/>
		<vType id="car3" tau="4.458" accel="0.347" decel="2.919" maxSpeed="8.810" carFollowModel="EIDM" sigma="0.543" lcSigma="0.182" lcSublane="0.865" lcPushy="0.221" lcAssertive="60.317" lcSpeedGainRight="4.596" vClass="passenger" lcStrategic="99.000" maxSpeedLat="3.500" lcKeepRight="0.000" lcOvertakeRight="0.000" lcCooperative="0.903" lcLookaheadLeft="88.270"/>
		<vType id="car4" tau="5.688" accel="0.347" decel="2.919" maxSpeed="7.085" carFollowModel="EIDM" sigma="0.543" lcSigma="0.182" lcSublane="0.865" lcPushy="0.221" lcAssertive="60.317" lcSpeedGainRight="4.596" vClass="passenger" lcStrategic="99.000" maxSpeedLat="3.500" lcKeepRight="0.000" lcOvertakeRight="0.000" lcCooperative="0.903" lcLookaheadLeft="88.270"/>
		<vType id="car5" tau="2.895" accel="0.347" decel="2.919" maxSpeed="12.347" carFollowModel="EIDM" sigma="0.543" lcSigma="0.182" lcSublane="0.865" lcPushy="0.221" lcAssertive="60.317" lcSpeedGainRight="4.596" vClass="passenger" lcStrategic="99.000" maxSpeedLat="3.500" lcKeepRight="0.000" lcOvertakeRight="0.000" lcCooperative="0.903" lcLookaheadLeft="88.270"/>
		<vType id="car6" tau="1.571" accel="0.347" decel="2.919" maxSpeed="19.743" carFollowModel="EIDM" sigma="0.543" lcSigma="0.182" lcSublane="0.865" lcPushy="0.221" lcAssertive="60.317" lcSpeedGainRight="4.596" vClass="passenger" lcStrategic="99.000" maxSpeedLat="3.500" lcKeepRight="0.000" lcOvertakeRight="0.000" lcCooperative="0.903" lcLookaheadLeft="88.270"/>
		<vType id="car7" tau="0.678" accel="0.347" decel="2.919" maxSpeed="13.248" carFollowModel="EIDM" sigma="0.543" lcSigma="0.182" lcSublane="0.865" lcPushy="0.221" lcAssertive="60.317" lcSpeedGainRight="4.596" vClass="passenger" lcStrategic="99.000" maxSpeedLat="3.500" lcKeepRight="0.000" lcOvertakeRight="0.000" lcCooperative="0.903" lcLookaheadLeft="88.270"/>
		<vType id="car8" tau="3.895" accel="0.347" decel="2.919" maxSpeed="12.363" carFollowModel="EIDM" sigma="0.543" lcSigma="0.182" lcSublane="0.865" lcPushy="0.221" lcAssertive="60.317" lcSpeedGainRight="4.596" vClass="passenger" lcStrategic="99.000" maxSpeedLat="3.500" lcKeepRight="0.000" lcOvertakeRight="0.000" lcCooperative="0.903" lcLookaheadLeft="88.270"/>
		<vType id="car9" tau="2.410" accel="0.347" decel="2.919" maxSpeed="28.061" carFollowModel="EIDM" sigma="0.543" lcSigma="0.182" lcSublane="0.865" lcPushy="0.221" lcAssertive="60.317" lcSpeedGainRight="4.596" vClass="passenger" lcStrategic="99.000" maxSpeedLat="3.500" lcKeepRight="0.000" lcOvertakeRight="0.000" lcCooperative="0.903" lcLookaheadLeft="88.270"/>
		<vType id="car10" tau="1.266" accel="0.347" decel="2.919" maxSpeed="13.029" carFollowModel="EIDM" sigma="0.543" lcSigma="0.182" lcSublane="0.865" lcPushy="0.221" lcAssertive="60.317" lcSpeedGainRight="4.596" vClass="passenger" lcStrategic="99.000" maxSpeedLat="3.500" lcKeepRight="0.000" lcOvertakeRight="0.000" lcCooperative="0.903" lcLookaheadLeft="88.270"/>
		<vType id="car11" tau="0.308" accel="0.347" decel="2.919" maxSpeed="21.737" carFollowModel="EIDM" sigma="0.543" lcSigma="0.182" lcSublane="0.865" lcPushy="0.221" lcAssertive="60.317" lcSpeedGainRight="4.596" vClass="passenger" lcStrategic="99.000" maxSpeedLat="3.500" lcKeepRight="0.000" lcOvertakeRight="0.000" lcCooperative="0.903" lcLookaheadLeft="88.270"/>
		<vType id="car12" tau="4.247" accel="0.347" decel="2.919" maxSpeed="16.604" carFollowModel="EIDM" sigma="0.543" lcSigma="0.182" lcSublane="0.865" lcPushy="0.221" lcAssertive="60.317" lcSpeedGainRight="4.596" vClass="passenger" lcStrategic="99.000" maxSpeedLat="3.500" lcKeepRight="0.000" lcOvertakeRight="0.000" lcCooperative="0.903" lcLookaheadLeft="88.270"/>
		<vType id="car13" tau="5.546" accel="0.347" decel="2.919" maxSpeed="10.476" carFollowModel="EIDM" sigma="0.543" lcSigma="0.182" lcSublane="0.865" lcPushy="0.221" lcAssertive="60.317" lcSpeedGainRight="4.596" vClass="passenger" lcStrategic="99.000" maxSpeedLat="3.500" lcKeepRight="0.000" lcOvertakeRight="0.000" lcCooperative="0.903" lcLookaheadLeft="88.270"/>
		<vType id="car14" tau="5.497" accel="0.347" decel="2.919" maxSpeed="11.599" carFollowModel="EIDM" sigma="0.543" lcSigma="0.182" lcSublane="0.865" lcPushy="0.221" lcAssertive="60.317" lcSpeedGainRight="4.596" vClass="passenger" lcStrategic="99.000" maxSpeedLat="3.500" lcKeepRight="0.000" lcOvertakeRight="0.000" lcCooperative="0.903" lcLookaheadLeft="88.270"/>
		<vType id="car15" tau="5.946" accel="0.347" decel="2.919" maxSpeed="21.287" carFollowModel="EIDM" sigma="0.543" lcSigma="0.182" lcSublane="0.865" lcPushy="0.221" lcAssertive="60.317" lcSpeedGainRight="4.596" vClass="passenger" lcStrategic="99.000" maxSpeedLat="3.500" lcKeepRight="0.000" lcOvertakeRight="0.000" lcCooperative="0.903" lcLookaheadLeft="88.270"/>
		<vType id="car16" tau="4.542" accel="0.347" decel="2.919" maxSpeed="13.951" carFollowModel="EIDM" sigma="0.543" lcSigma="0.182" lcSublane="0.865" lcPushy="0.221" lcAssertive="60.317" lcSpeedGainRight="4.596" vClass="passenger" lcStrategic="99.000" maxSpeedLat="3.500" lcKeepRight="0.000" lcOvertakeRight="0.000" lcCooperative="0.903" lcLookaheadLeft="88.270"/>
		<vType id="car17" tau="0.642" accel="0.347" decel="2.919" maxSpeed="27.031" carFollowModel="EIDM" sigma="0.543" lcSigma="0.182" lcSublane="0.865" lcPushy="0.221" lcAssertive="60.317" lcSpeedGainRight="4.596" vClass="passenger" lcStrategic="99.000" maxSpeedLat="3.500" lcKeepRight="0.000" lcOvertakeRight="0.000" lcCooperative="0.903" lcLookaheadLeft="88.270"/>
		<vType id="car18" tau="5.343" accel="0.347" decel="2.919" maxSpeed="25.613" carFollowModel="EIDM" sigma="0.543" lcSigma="0.182" lcSublane="0.865" lcPushy="0.221" lcAssertive="60.317" lcSpeedGainRight="4.596" vClass="passenger" lcStrategic="99.000" maxSpeedLat="3.500" lcKeepRight="0.000" lcOvertakeRight="0.000" lcCooperative="0.903" lcLookaheadLeft="88.270"/>
		<vType id="car19" tau="5.049" accel="0.347" decel="2.919" maxSpeed="8.261" carFollowModel="EIDM" sigma="0.543" lcSigma="0.182" lcSublane="0.865" lcPushy="0.221" lcAssertive="60.317" lcSpeedGainRight="4.596" vClass="passenger" lcStrategic="99.000" maxSpeedLat="3.500" lcKeepRight="0.000" lcOvertakeRight="0.000" lcCooperative="0.903" lcLookaheadLeft="88.270"/>
		<vType id="car20" tau="3.759" accel="0.347" decel="2.919" maxSpeed="11.855" carFollowModel="EIDM" sigma="0.543" lcSigma="0.182" lcSublane="0.865" lcPushy="0.221" lcAssertive="60.317" lcSpeedGainRight="4.596" vClass="passenger" lcStrategic="99.000" maxSpeedLat="3.500" lcKeepRight="0.000" lcOvertakeRight="0.000" lcCooperative="0.903" lcLookaheadLeft="88.270"/>
		<vType id="car21" tau="5.495" accel="0.347" decel="2.919" maxSpeed="25.069" carFollowModel="EIDM" sigma="0.543" lcSigma="0.182" lcSublane="0.865" lcPushy="0.221" lcAssertive="60.317" lcSpeedGainRight="4.596" vClass="passenger" lcStrategic="99.000" maxSpeedLat="3.500" lcKeepRight="0.000" lcOvertakeRight="0.000" lcCooperative="0.903" lcLookaheadLeft="88.270"/>
		<vType id="car22" tau="0.378" accel="0.347" decel="2.919" maxSpeed="8.255" carFollowModel="EIDM" sigma="0.543" lcSigma="0.182" lcSublane="0.865" lcPushy="0.221" lcAssertive="60.317" lcSpeedGainRight="4.596" vClass="passenger" lcStrategic="99.000" maxSpeedLat="3.500" lcKeepRight="0.000" lcOvertakeRight="0.000" lcCooperative="0.903" lcLookaheadLeft="88.270"/>
		<vType id="car23" tau="4.769" accel="0.347" decel="2.919" maxSpeed="22.449" carFollowModel="EIDM" sigma="0.543" lcSigma="0.182" lcSublane="0.865" lcPushy="0.221" lcAssertive="60.317" lcSpeedGainRight="4.596" vClass="passenger" lcStrategic="99.000" maxSpeedLat="3.500" lcKeepRight="0.000" lcOvertakeRight="0.000" lcCooperative="0.903" lcLookaheadLeft="88.270"/>
		<vType id="car24" tau="1.440" accel="0.347" decel="2.919" maxSpeed="16.591" carFollowModel="EIDM" sigma="0.543" lcSigma="0.182" lcSublane="0.865" lcPushy="0.221" lcAssertive="60.317" lcSpeedGainRight="4.596" vClass="passenger" lcStrategic="99.000" maxSpeedLat="3.500" lcKeepRight="0.000" lcOvertakeRight="0.000" lcCooperative="0.903" lcLookaheadLeft="88.270"/>
		<vType id="car25" tau="1.010" accel="0.347" decel="2.919" maxSpeed="21.067" carFollowModel="EIDM" sigma="0.543" lcSigma="0.182" lcSublane="0.865" lcPushy="0.221" lcAssertive="60.317" lcSpeedGainRight="4.596" vClass="passenger" lcStrategic="99.000" maxSpeedLat="3.500" lcKeepRight="0.000" lcOvertakeRight="0.000" lcCooperative="0.903" lcLookaheadLeft="88.270"/>
		<vType id="car26" tau="2.307" accel="0.347" decel="2.919" maxSpeed="22.384" carFollowModel="EIDM" sigma="0.543" lcSigma="0.182" lcSublane="0.865" lcPushy="0.221" lcAssertive="60.317" lcSpeedGainRight="4.596" vClass="passenger" lcStrategic="99.000" maxSpeedLat="3.500" lcKeepRight="0.000" lcOvertakeRight="0.000" lcCooperative="0.903" lcLookaheadLeft="88.270"/>
		<vType id="car27" tau="5.992" accel="0.347" decel="2.919" maxSpeed="6.837" carFollowModel="EIDM" sigma="0.543" lcSigma="0.182" lcSublane="0.865" lcPushy="0.221" lcAssertive="60.317" lcSpeedGainRight="4.596" vClass="passenger" lcStrategic="99.000" maxSpeedLat="3.500" lcKeepRight="0.000" lcOvertakeRight="0.000" lcCooperative="0.903" lcLookaheadLeft="88.270"/>
		<vType id="car28" tau="3.426" accel="0.347" decel="2.919" maxSpeed="14.150" carFollowModel="EIDM" sigma="0.543" lcSigma="0.182" lcSublane="0.865" lcPushy="0.221" lcAssertive="60.317" lcSpeedGainRight="4.596" vClass="passenger" lcStrategic="99.000" maxSpeedLat="3.500" lcKeepRight="0.000" lcOvertakeRight="0.000" lcCooperative="0.903" lcLookaheadLeft="88.270"/>
		<vType id="car29" tau="0.959" accel="0.347" decel="2.919" maxSpeed="19.657" carFollowModel="EIDM" sigma="0.543" lcSigma="0.182" lcSublane="0.865" lcPushy="0.221" lcAssertive="60.317" lcSpeedGainRight="4.596" vClass="passenger" lcStrategic="99.000" maxSpeedLat="3.500" lcKeepRight="0.000" lcOvertakeRight="0.000" lcCooperative="0.903" lcLookaheadLeft="88.270"/>
		<vType id="car30" tau="2.872" accel="0.347" decel="2.919" maxSpeed="24.090" carFollowModel="EIDM" sigma="0.543" lcSigma="0.182" lcSublane="0.865" lcPushy="0.221" lcAssertive="60.317" lcSpeedGainRight="4.596" vClass="passenger" lcStrategic="99.000" maxSpeedLat="3.500" lcKeepRight="0.000" lcOvertakeRight="0.000" lcCooperative="0.903" lcLookaheadLeft="88.270"/>
		<vType id="car31" tau="5.295" accel="0.347" decel="2.919" maxSpeed="28.484" carFollowModel="EIDM" sigma="0.543" lcSigma="0.182" lcSublane="0.865" lcPushy="0.221" lcAssertive="60.317" lcSpeedGainRight="4.596" vClass="passenger" lcStrategic="99.000" maxSpeedLat="3.500" lcKeepRight="0.000" lcOvertakeRight="0.000" lcCooperative="0.903" lcLookaheadLeft="88.270"/>
		<vType id="car32" tau="1.704" accel="0.347" decel="2.919" maxSpeed="26.596" carFollowModel="EIDM" sigma="0.543" lcSigma="0.182" lcSublane="0.865" lcPushy="0.221" lcAssertive="60.317" lcSpeedGainRight="4.596" vClass="passenger" lcStrategic="99.000" maxSpeedLat="3.500" lcKeepRight="0.000" lcOvertakeRight="0.000" lcCooperative="0.903" lcLookaheadLeft="88.270"/>
		<vType id="car33" tau="2.746" accel="0.347" decel="2.919" maxSpeed="9.169" carFollowModel="EIDM" sigma="0.543" lcSigma="0.182" lcSublane="0.865" lcPushy="0.221" lcAssertive="60.317" lcSpeedGainRight="4.596" vClass="passenger" lcStrategic="99.000" maxSpeedLat="3.500" lcKeepRight="0.000" lcOvertakeRight="0.000" lcCooperative="0.903" lcLookaheadLeft="88.270"/>
		<vType id="car34" tau="0.801" accel="0.347" decel="2.919" maxSpeed="14.775" carFollowModel="EIDM" sigma="0.543" lcSigma="0.182" lcSublane="0.865" lcPushy="0.221" lcAssertive="60.317" lcSpeedGainRight="4.596" vClass="passenger" lcStrategic="99.000" maxSpeedLat="3.500" lcKeepRight="0.000" lcOvertakeRight="0.000" lcCooperative="0.903" lcLookaheadLeft="88.270"/>
		<vType id="car35" tau="5.997" accel="0.347" decel="2.919" maxSpeed="20.495" carFollowModel="EIDM" sigma="0.543" lcSigma="0.182" lcSublane="0.865" lcPushy="0.221" lcAssertive="60.317" lcSpeedGainRight="4.596" vClass="passenger" lcStrategic="99.000" maxSpeedLat="3.500" lcKeepRight="0.000" lcOvertakeRight="0.000" lcCooperative="0.903" lcLookaheadLeft="88.270"/>
		<vType id="car36" tau="2.423" accel="0.347" decel="2.919" maxSpeed="26.604" carFollowModel="EIDM" sigma="0.543" lcSigma="0.182" lcSublane="0.865" lcPushy="0.221" lcAssertive="60.317" lcSpeedGainRight="4.596" vClass="passenger" lcStrategic="99.000" maxSpeedLat="3.500" lcKeepRight="0.000" lcOvertakeRight="0.000" lcCooperative="0.903" lcLookaheadLeft="88.270"/>
		<vType id="car37" tau="3.980" accel="0.347" decel="2.919" maxSpeed="14.401" carFollowModel="EIDM" sigma="0.543" lcSigma="0.182" lcSublane="0.865" lcPushy="0.221" lcAssertive="60.317" lcSpeedGainRight="4.596" vClass="passenger" lcStrategic="99.000" maxSpeedLat="3.500" lcKeepRight="0.000" lcOvertakeRight="0.000" lcCooperative="0.903" lcLookaheadLeft="88.270"/>
		<vType id="car38" tau="2.314" accel="0.347" decel="2.919" maxSpeed="22.538" carFollowModel="EIDM" sigma="0.543" lcSigma="0.182" lcSublane="0.865" lcPushy="0.221" lcAssertive="60.317" lcSpeedGainRight="4.596" vClass="passenger" lcStrategic="99.000" maxSpeedLat="3.500" lcKeepRight="0.000" lcOvertakeRight="0.000" lcCooperative="0.903" lcLookaheadLeft="88.270"/>
		<vType id="car39" tau="0.681" accel="0.347" decel="2.919" maxSpeed="18.641" carFollowModel="EIDM" sigma="0.543" lcSigma="0.182" lcSublane="0.865" lcPushy="0.221" lcAssertive="60.317" lcSpeedGainRight="4.596" vClass="passenger" lcStrategic="99.000" maxSpeedLat="3.500" lcKeepRight="0.000" lcOvertakeRight="0.000" lcCooperative="0.903" lcLookaheadLeft="88.270"/>
		<vType id="car40" tau="2.219" accel="0.347" decel="2.919" maxSpeed="24.953" carFollowModel="EIDM" sigma="0.543" lcSigma="0.182" lcSublane="0.865" lcPushy="0.221" lcAssertive="60.317" lcSpeedGainRight="4.596" vClass="passenger" lcStrategic="99.000" maxSpeedLat="3.500" lcKeepRight="0.000" lcOvertakeRight="0.000" lcCooperative="0.903" lcLookaheadLeft="88.270"/>
		<vType id="car41" tau="4.614" accel="0.347" decel="2.919" maxSpeed="19.850" carFollowModel="EIDM" sigma="0.543" lcSigma="0.182" lcSublane="0.865" lcPushy="0.221" lcAssertive="60.317" lcSpeedGainRight="4.596" vClass="passenger" lcStrategic="99.000" maxSpeedLat="3.500" lcKeepRight="0.000" lcOvertakeRight="0.000" lcCooperative="0.903" lcLookaheadLeft="88.270"/>
		<vType id="car42" tau="1.451" accel="0.347" decel="2.919" maxSpeed="9.241" carFollowModel="EIDM" sigma="0.543" lcSigma="0.182" lcSublane="0.865" lcPushy="0.221" lcAssertive="60.317" lcSpeedGainRight="4.596" vClass="passenger" lcStrategic="99.000" maxSpeedLat="3.500" lcKeepRight="0.000" lcOvertakeRight="0.000" lcCooperative="0.903" lcLookaheadLeft="88.270"/>
		<vType id="car43" tau="5.345" accel="0.347" decel="2.919" maxSpeed="13.617" carFollowModel="EIDM" sigma="0.543" lcSigma="0.182" lcSublane="0.865" lcPushy="0.221" lcAssertive="60.317" lcSpeedGainRight="4.596" vClass="passenger" lcStrategic="99.000" maxSpeedLat="3.500" lcKeepRight="0.000" lcOvertakeRight="0.000" lcCooperative="0.903" lcLookaheadLeft="88.270"/>
		<vType id="car44" tau="5.310" accel="0.347" decel="2.919" maxSpeed="15.787" carFollowModel="EIDM" sigma="0.543" lcSigma="0.182" lcSublane="0.865" lcPushy="0.221" lcAssertive="60.317" lcSpeedGainRight="4.596" vClass="passenger" lcStrategic="99.000" maxSpeedLat="3.500" lcKeepRight="0.000" lcOvertakeRight="0.000" lcCooperative="0.903" lcLookaheadLeft="88.270"/>
		<vType id="car45" tau="0.501" accel="0.347" decel="2.919" maxSpeed="10.378" carFollowModel="EIDM" sigma="0.543" lcSigma="0.182" lcSublane="0.865" lcPushy="0.221" lcAssertive="60.317" lcSpeedGainRight="4.596" vClass="passenger" lcStrategic="99.000" maxSpeedLat="3.500" lcKeepRight="0.000" lcOvertakeRight="0.000" lcCooperative="0.903" lcLookaheadLeft="88.270"/>
		<vType id="car46" tau="2.725" accel="0.347" decel="2.919" maxSpeed="25.424" carFollowModel="EIDM" sigma="0.543" lcSigma="0.182" lcSublane="0.865" lcPushy="0.221" lcAssertive="60.317" lcSpeedGainRight="4.596" vClass="passenger" lcStrategic="99.000" maxSpeedLat="3.500" lcKeepRight="0.000" lcOvertakeRight="0.000" lcCooperative="0.903" lcLookaheadLeft="88.270"/>
		<vType id="car47" tau="3.857" accel="0.347" decel="2.919" maxSpeed="17.703" carFollowModel="EIDM" sigma="0.543" lcSigma="0.182" lcSublane="0.865" lcPushy="0.221" lcAssertive="60.317" lcSpeedGainRight="4.596" vClass="passenger" lcStrategic="99.000" maxSpeedLat="3.500" lcKeepRight="0.000" lcOvertakeRight="0.000" lcCooperative="0.903" lcLookaheadLeft="88.270"/>
		<vType id="car48" tau="0.858" accel="0.347" decel="2.919" maxSpeed="28.716" carFollowModel="EIDM" sigma="0.543" lcSigma="0.182" lcSublane="0.865" lcPushy="0.221" lcAssertive="60.317" lcSpeedGainRight="4.596" vClass="passenger" lcStrategic="99.000" maxSpeedLat="3.500" lcKeepRight="0.000" lcOvertakeRight="0.000" lcCooperative="0.903" lcLookaheadLeft="88.270"/>
		<vType id="car49" tau="2.894" accel="0.347" decel="2.919" maxSpeed="17.287" carFollowModel="EIDM" sigma="0.543" lcSigma="0.182" lcSublane="0.865" lcPushy="0.221" lcAssertive="60.317" lcSpeedGainRight="4.596" vClass="passenger" lcStrategic="99.000" maxSpeedLat="3.500" lcKeepRight="0.000" lcOvertakeRight="0.000" lcCooperative="0.903" lcLookaheadLeft="88.270"/>
		<vType id="car50" tau="1.364" accel="0.347" decel="2.919" maxSpeed="17.741" carFollowModel="EIDM" sigma="0.543" lcSigma="0.182" lcSublane="0.865" lcPushy="0.221" lcAssertive="60.317" lcSpeedGainRight="4.596" vClass="passenger" lcStrategic="99.000" maxSpeedLat="3.500" lcKeepRight="0.000" lcOvertakeRight="0.000" lcCooperative="0.903" lcLookaheadLeft="88.270"/>
		<vType id="car51" tau="3.385" accel="0.347" decel="2.919" maxSpeed="14.157" carFollowModel="EIDM" sigma="0.543" lcSigma="0.182" lcSublane="0.865" lcPushy="0.221" lcAssertive="60.317" lcSpeedGainRight="4.596" vClass="passenger" lcStrategic="99.000" maxSpeedLat="3.500" lcKeepRight="0.000" lcOvertakeRight="0.000" lcCooperative="0.903" lcLookaheadLeft="88.270"/>
		<vType id="car52" tau="3.063" accel="0.347" decel="2.919" maxSpeed="17.421" carFollowModel="EIDM" sigma="0.543" lcSigma="0.182" lcSublane="0.865" lcPushy="0.221" lcAssertive="60.317" lcSpeedGainRight="4.596" vClass="passenger" lcStrategic="99.000" maxSpeedLat="3.500" lcKeepRight="0.000" lcOvertakeRight="0.000" lcCooperative="0.903" lcLookaheadLeft="88.270"/>
		<vType id="car53" tau="4.497" accel="0.347" decel="2.919" maxSpeed="11.005" carFollowModel="EIDM" sigma="0.543" lcSigma="0.182" lcSublane="0.865" lcPushy="0.221" lcAssertive="60.317" lcSpeedGainRight="4.596" vClass="passenger" lcStrategic="99.000" maxSpeedLat="3.500" lcKeepRight="0.000" lcOvertakeRight="0.000" lcCooperative="0.903" lcLookaheadLeft="88.270"/>
		<vType id="car54" tau="5.433" accel="0.347" decel="2.919" maxSpeed="15.416" carFollowModel="EIDM" sigma="0.543" lcSigma="0.182" lcSublane="0.865" lcPushy="0.221" lcAssertive="60.317" lcSpeedGainRight="4.596" vClass="passenger" lcStrategic="99.000" maxSpeedLat="3.500" lcKeepRight="0.000" lcOvertakeRight="0.000" lcCooperative="0.903" lcLookaheadLeft="88.270"/>
		<vType id="car55" tau="4.275" accel="0.347" decel="2.919" maxSpeed="15.068" carFollowModel="EIDM" sigma="0.543" lcSigma="0.182" lcSublane="0.865" lcPushy="0.221" lcAssertive="60.317" lcSpeedGainRight="4.596" vClass="passenger" lcStrategic="99.000" maxSpeedLat="3.500" lcKeepRight="0.000" lcOvertakeRight="0.000" lcCooperative="0.903" lcLookaheadLeft="88.270"/>
		<vType id="car56" tau="4.213" accel="0.347" decel="2.919" maxSpeed="26.399" carFollowModel="EIDM" sigma="0.543" lcSigma="0.182" lcSublane="0.865" lcPushy="0.221" lcAssertive="60.317" lcSpeedGainRight="4.596" vClass="passenger" lcStrategic="99.000" maxSpeedLat="3.500" lcKeepRight="0.000" lcOvertakeRight="0.000" lcCooperative="0.903" lcLookaheadLeft="88.270"/>
		<vType id="car57" tau="4.959" accel="0.347" decel="2.919" maxSpeed="12.006" carFollowModel="EIDM" sigma="0.543" lcSigma="0.182" lcSublane="0.865" lcPushy="0.221" lcAssertive="60.317" lcSpeedGainRight="4.596" vClass="passenger" lcStrategic="99.000" maxSpeedLat="3.500" lcKeepRight="0.000" lcOvertakeRight="0.000" lcCooperative="0.903" lcLookaheadLeft="88.270"/>
		<vType id="car58" tau="5.659" accel="0.347" decel="2.919" maxSpeed="26.291" carFollowModel="EIDM" sigma="0.543" lcSigma="0.182" lcSublane="0.865" lcPushy="0.221" lcAssertive="60.317" lcSpeedGainRight="4.596" vClass="passenger" lcStrategic="99.000" maxSpeedLat="3.500" lcKeepRight="0.000" lcOvertakeRight="0.000" lcCooperative="0.903" lcLookaheadLeft="88.270"/>
		<vType id="car59" tau="1.270" accel="0.347" decel="2.919" maxSpeed="9.368" carFollowModel="EIDM" sigma="0.543" lcSigma="0.182" lcSublane="0.865" lcPushy="0.221" lcAssertive="60.317" lcSpeedGainRight="4.596" vClass="passenger" lcStrategic="99.000" maxSpeedLat="3.500" lcKeepRight="0.000" lcOvertakeRight="0.000" lcCooperative="0.903" lcLookaheadLeft="88.270"/>
		<vType id="car60" tau="3.153" accel="0.347" decel="2.919" maxSpeed="26.938" carFollowModel="EIDM" sigma="0.543" lcSigma="0.182" lcSublane="0.865" lcPushy="0.221" lcAssertive="60.317" lcSpeedGainRight="4.596" vClass="passenger" lcStrategic="99.000" maxSpeedLat="3.500" lcKeepRight="0.000" lcOvertakeRight="0.000" lcCooperative="0.903" lcLookaheadLeft="88.270"/>
		<vType id="car61" tau="4.213" accel="0.347" decel="2.919" maxSpeed="29.520" carFollowModel="EIDM" sigma="0.543" lcSigma="0.182" lcSublane="0.865" lcPushy="0.221" lcAssertive="60.317" lcSpeedGainRight="4.596" vClass="passenger" lcStrategic="99.000" maxSpeedLat="3.500" lcKeepRight="0.000" lcOvertakeRight="0.000" lcCooperative="0.903" lcLookaheadLeft="88.270"/>
		<vType id="car62" tau="2.195" accel="0.347" decel="2.919" maxSpeed="15.040" carFollowModel="EIDM" sigma="0.543" lcSigma="0.182" lcSublane="0.865" lcPushy="0.221" lcAssertive="60.317" lcSpeedGainRight="4.596" vClass="passenger" lcStrategic="99.000" maxSpeedLat="3.500" lcKeepRight="0.000" lcOvertakeRight="0.000" lcCooperative="0.903" lcLookaheadLeft="88.270"/>
		<vType id="car63" tau="2.457" accel="0.347" decel="2.919" maxSpeed="19.410" carFollowModel="EIDM" sigma="0.543" lcSigma="0.182" lcSublane="0.865" lcPushy="0.221" lcAssertive="60.317" lcSpeedGainRight="4.596" vClass="passenger" lcStrategic="99.000" maxSpeedLat="3.500" lcKeepRight="0.000" lcOvertakeRight="0.000" lcCooperative="0.903" lcLookaheadLeft="88.270"/>
		<vType id="car64" tau="0.551" accel="0.347" decel="2.919" maxSpeed="7.583" carFollowModel="EIDM" sigma="0.543" lcSigma="0.182" lcSublane="0.865" lcPushy="0.221" lcAssertive="60.317" lcSpeedGainRight="4.596" vClass="passenger" lcStrategic="99.000" maxSpeedLat="3.500" lcKeepRight="0.000" lcOvertakeRight="0.000" lcCooperative="0.903" lcLookaheadLeft="88.270"/>
		<vType id="car65" tau="4.725" accel="0.347" decel="2.919" maxSpeed="10.474" carFollowModel="EIDM" sigma="0.543" lcSigma="0.182" lcSublane="0.865" lcPushy="0.221" lcAssertive="60.317" lcSpeedGainRight="4.596" vClass="passenger" lcStrategic="99.000" maxSpeedLat="3.500" lcKeepRight="0.000" lcOvertakeRight="0.000" lcCooperative="0.903" lcLookaheadLeft="88.270"/>
		<vType id="car66" tau="4.045" accel="0.347" decel="2.919" maxSpeed="18.891" carFollowModel="EIDM" sigma="0.543" lcSigma="0.182" lcSublane="0.865" lcPushy="0.221" lcAssertive="60.317" lcSpeedGainRight="4.596" vClass="passenger" lcStrategic="99.000" maxSpeedLat="3.500" lcKeepRight="0.000" lcOvertakeRight="0.000" lcCooperative="0.903" lcLookaheadLeft="88.270"/>
		<vType id="car67" tau="4.803" accel="0.347" decel="2.919" maxSpeed="27.088" carFollowModel="EIDM" sigma="0.543" lcSigma="0.182" lcSublane="0.865" lcPushy="0.221" lcAssertive="60.317" lcSpeedGainRight="4.596" vClass="passenger" lcStrategic="99.000" maxSpeedLat="3.500" lcKeepRight="0.000" lcOvertakeRight="0.000" lcCooperative="0.903" lcLookaheadLeft="88.270"/>
		<vType id="car68" tau="3.912" accel="0.347" decel="2.919" maxSpeed="7.899" carFollowModel="EIDM" sigma="0.543" lcSigma="0.182" lcSublane="0.865" lcPushy="0.221" lcAssertive="60.317" lcSpeedGainRight="4.596" vClass="passenger" lcStrategic="99.000" maxSpeedLat="3.500" lcKeepRight="0.000" lcOvertakeRight="0.000" lcCooperative="0.903" lcLookaheadLeft="88.270"/>
		<vType id="car69" tau="3.765" accel="0.347" decel="2.919" maxSpeed="25.055" carFollowModel="EIDM" sigma="0.543" lcSigma="0.182" lcSublane="0.865" lcPushy="0.221" lcAssertive="60.317" lcSpeedGainRight="4.596" vClass="passenger" lcStrategic="99.000" maxSpeedLat="3.500" lcKeepRight="0.000" lcOvertakeRight="0.000" lcCooperative="0.903" lcLookaheadLeft="88.270"/>
		<vType id="car70" tau="5.396" accel="0.347" decel="2.919" maxSpeed="25.091" carFollowModel="EIDM" sigma="0.543" lcSigma="0.182" lcSublane="0.865" lcPushy="0.221" lcAssertive="60.317" lcSpeedGainRight="4.596" vClass="passenger" lcStrategic="99.000" maxSpeedLat="3.500" lcKeepRight="0.000" lcOvertakeRight="0.000" lcCooperative="0.903" lcLookaheadLeft="88.270"/>
		<vType id="car71" tau="0.279" accel="0.347" decel="2.919" maxSpeed="24.311" carFollowModel="EIDM" sigma="0.543" lcSigma="0.182" lcSublane="0.865" lcPushy="0.221" lcAssertive="60.317" lcSpeedGainRight="4.596" vClass="passenger" lcStrategic="99.000" maxSpeedLat="3.500" lcKeepRight="0.000" lcOvertakeRight="0.000" lcCooperative="0.903" lcLookaheadLeft="88.270"/>
		<vType id="car72" tau="4.370" accel="0.347" decel="2.919" maxSpeed="8.541" carFollowModel="EIDM" sigma="0.543" lcSigma="0.182" lcSublane="0.865" lcPushy="0.221" lcAssertive="60.317" lcSpeedGainRight="4.596" vClass="passenger" lcStrategic="99.000" maxSpeedLat="3.500" lcKeepRight="0.000" lcOvertakeRight="0.000" lcCooperative="0.903" lcLookaheadLeft="88.270"/>
		<vType id="car73" tau="4.410" accel="0.347" decel="2.919" maxSpeed="26.382" carFollowModel="EIDM" sigma="0.543" lcSigma="0.182" lcSublane="0.865" lcPushy="0.221" lcAssertive="60.317" lcSpeedGainRight="4.596" vClass="passenger" lcStrategic="99.000" maxSpeedLat="3.500" lcKeepRight="0.000" lcOvertakeRight="0.000" lcCooperative="0.903" lcLookaheadLeft="88.270"/>
		<vType id="car74" tau="4.556" accel="0.347" decel="2.919" maxSpeed="11.708" carFollowModel="EIDM" sigma="0.543" lcSigma="0.182" lcSublane="0.865" lcPushy="0.221" lcAssertive="60.317" lcSpeedGainRight="4.596" vClass="passenger" lcStrategic="99.000" maxSpeedLat="3.500" lcKeepRight="0.000" lcOvertakeRight="0.000" lcCooperative="0.903" lcLookaheadLeft="88.270"/>
		<vType id="car75" tau="4.593" accel="0.347" decel="2.919" maxSpeed="21.127" carFollowModel="EIDM" sigma="0.543" lcSigma="0.182" lcSublane="0.865" lcPushy="0.221" lcAssertive="60.317" lcSpeedGainRight="4.596" vClass="passenger" lcStrategic="99.000" maxSpeedLat="3.500" lcKeepRight="0.000" lcOvertakeRight="0.000" lcCooperative="0.903" lcLookaheadLeft="88.270"/>
		<vType id="car76" tau="3.965" accel="0.347" decel="2.919" maxSpeed="8.241" carFollowModel="EIDM" sigma="0.543" lcSigma="0.182" lcSublane="0.865" lcPushy="0.221" lcAssertive="60.317" lcSpeedGainRight="4.596" vClass="passenger" lcStrategic="99.000" maxSpeedLat="3.500" lcKeepRight="0.000" lcOvertakeRight="0.000" lcCooperative="0.903" lcLookaheadLeft="88.270"/>
		<vType id="car77" tau="1.770" accel="0.347" decel="2.919" maxSpeed="23.542" carFollowModel="EIDM" sigma="0.543" lcSigma="0.182" lcSublane="0.865" lcPushy="0.221" lcAssertive="60.317" lcSpeedGainRight="4.596" vClass="passenger" lcStrategic="99.000" maxSpeedLat="3.500" lcKeepRight="0.000" lcOvertakeRight="0.000" lcCooperative="0.903" lcLookaheadLeft="88.270"/>
		<vType id="car78" tau="1.647" accel="0.347" decel="2.919" maxSpeed="12.403" carFollowModel="EIDM" sigma="0.543" lcSigma="0.182" lcSublane="0.865" lcPushy="0.221" lcAssertive="60.317" lcSpeedGainRight="4.596" vClass="passenger" lcStrategic="99.000" maxSpeedLat="3.500" lcKeepRight="0.000" lcOvertakeRight="0.000" lcCooperative="0.903" lcLookaheadLeft="88.270"/>
		<vType id="car79" tau="5.559" accel="0.347" decel="2.919" maxSpeed="8.386" carFollowModel="EIDM" sigma="0.543" lcSigma="0.182" lcSublane="0.865" lcPushy="0.221" lcAssertive="60.317" lcSpeedGainRight="4.596" vClass="passenger" lcStrategic="99.000" maxSpeedLat="3.500" lcKeepRight="0.000" lcOvertakeRight="0.000" lcCooperative="0.903" lcLookaheadLeft="88.270"/>
		<vType id="car80" tau="5.625" accel="0.347" decel="2.919" maxSpeed="9.822" carFollowModel="EIDM" sigma="0.543" lcSigma="0.182" lcSublane="0.865" lcPushy="0.221" lcAssertive="60.317" lcSpeedGainRight="4.596" vClass="passenger" lcStrategic="99.000" maxSpeedLat="3.500" lcKeepRight="0.000" lcOvertakeRight="0.000" lcCooperative="0.903" lcLookaheadLeft="88.270"/>
		<vType id="car81" tau="5.272" accel="0.347" decel="2.919" maxSpeed="13.807" carFollowModel="EIDM" sigma="0.543" lcSigma="0.182" lcSublane="0.865" lcPushy="0.221" lcAssertive="60.317" lcSpeedGainRight="4.596" vClass="passenger" lcStrategic="99.000" maxSpeedLat="3.500" lcKeepRight="0.000" lcOvertakeRight="0.000" lcCooperative="0.903" lcLookaheadLeft="88.270"/>