<?xml version="1.0" ?>
<additional xmlns:xsi="http://www.w3.org/2001/XMLSchema-instance" xsi:noNamespaceSchemaLocation="http://sumo.dlr.de/xsd/additional_file.xsd">
	<vTypeDistribution id="car">
		<vType id="car0" tau="3.560" accel="0.242" decel="3.480" maxSpeed="22.884" carFollowModel="EIDM" sigma="0.953" lcSigma="0.601" lcSublane="0.575" lcPushy="0.840" lcAssertive="26.090" lcSpeedGainRight="3.118" vClass="passenger" lcStrategic="99.000" maxSpeedLat="3.500" lcKeepRight="0.000" lcOvertakeRight="0.000" lcCooperative="0.826" lcLookaheadLeft="65.977"/>
		<vType id="car1" tau="1.353" accel="0.242" decel="3.480" maxSpeed="22.353" carFollowModel="EIDM" sigma="0.953" lcSigma="0.601" lcSublane="0.575" lcPushy="0.840" lcAssertive="26.090" lcSpeedGainRight="3.118" vClass="passenger" lcStrategic="99.000" maxSpeedLat="3.500" lcKeepRight="0.000" lcOvertakeRight="0.000" lcCooperative="0.826" lcLookaheadLeft="65.977"/>
		<vType id="car2" tau="5.401" accel="0.242" decel="3.480" maxSpeed="22.141" carFollowModel="EIDM" sigma="0.953" lcSigma="0.601" lcSublane="0.575" lcPushy="0.840" lcAssertive="26.090" lcSpeedGainRight="3.118" vClass="passenger" lcStrategic="99.000" maxSpeedLat="3.500" lcKeepRight="0.000" lcOvertakeRight="0.000" lcCooperative="0.826" lcLookaheadLeft="65.977"/>
		<vType id="car3" tau="0.279" accel="0.242" decel="3.480" maxSpeed="24.745" carFollowModel="EIDM" sigma="0.953" lcSigma="0.601" lcSublane="0.575" lcPushy="0.840" lcAssertive="26.090" lcSpeedGainRight="3.118" vClass="passenger" lcStrategic="99.000" maxSpeedLat="3.500" lcKeepRight="0.000" lcOvertakeRight="0.000" lcCooperative="0.826" lcLookaheadLeft="65.977"/>
		<vType id="car4" tau="4.266" accel="0.242" decel="3.480" maxSpeed="22.707" carFollowModel="EIDM" sigma="0.953" lcSigma="0.601" lcSublane="0.575" lcPushy="0.840" lcAssertive="26.090" lcSpeedGainRight="3.118" vClass="passenger" lcStrategic="99.000" maxSpeedLat="3.500" lcKeepRight="0.000" lcOvertakeRight="0.000" lcCooperative="0.826" lcLookaheadLeft="65.977"/>
		<vType id="car5" tau="4.258" accel="0.242" decel="3.480" maxSpeed="23.123" carFollowModel="EIDM" sigma="0.953" lcSigma="0.601" lcSublane="0.575" lcPushy="0.840" lcAssertive="26.090" lcSpeedGainRight="3.118" vClass="passenger" lcStrategic="99.000" maxSpeedLat="3.500" lcKeepRight="0.000" lcOvertakeRight="0.000" lcCooperative="0.826" lcLookaheadLeft="65.977"/>
		<vType id="car6" tau="5.889" accel="0.242" decel="3.480" maxSpeed="21.127" carFollowModel="EIDM" sigma="0.953" lcSigma="0.601" lcSublane="0.575" lcPushy="0.840" lcAssertive="26.090" lcSpeedGainRight="3.118" vClass="passenger" lcStrategic="99.000" maxSpeedLat="3.500" lcKeepRight="0.000" lcOvertakeRight="0.000" lcCooperative="0.826" lcLookaheadLeft="65.977"/>
		<vType id="car7" tau="3.931" accel="0.242" decel="3.480" maxSpeed="22.956" carFollowModel="EIDM" sigma="0.953" lcSigma="0.601" lcSublane="0.575" lcPushy="0.840" lcAssertive="26.090" lcSpeedGainRight="3.118" vClass="passenger" lcStrategic="99.000" maxSpeedLat="3.500" lcKeepRight="0.000" lcOvertakeRight="0.000" lcCooperative="0.826" lcLookaheadLeft="65.977"/>
		<vType id="car8" tau="4.688" accel="0.242" decel="3.480" maxSpeed="24.892" carFollowModel="EIDM" sigma="0.953" lcSigma="0.601" lcSublane="0.575" lcPushy="0.840" lcAssertive="26.090" lcSpeedGainRight="3.118" vClass="passenger" lcStrategic="99.000" maxSpeedLat="3.500" lcKeepRight="0.000" lcOvertakeRight="0.000" lcCooperative="0.826" lcLookaheadLeft="65.977"/>
		<vType id="car9" tau="2.970" accel="0.242" decel="3.480" maxSpeed="25.009" carFollowModel="EIDM" sigma="0.953" lcSigma="0.601" lcSublane="0.575" lcPushy="0.840" lcAssertive="26.090" lcSpeedGainRight="3.118" vClass="passenger" lcStrategic="99.000" maxSpeedLat="3.500" lcKeepRight="0.000" lcOvertakeRight="0.000" lcCooperative="0.826" lcLookaheadLeft="65.977"/>
		<vType id="car10" tau="0.875" accel="0.242" decel="3.480" maxSpeed="21.443" carFollowModel="EIDM" sigma="0.953" lcSigma="0.601" lcSublane="0.575" lcPushy="0.840" lcAssertive="26.090" lcSpeedGainRight="3.118" vClass="passenger" lcStrategic="99.000" maxSpeedLat="3.500" lcKeepRight="0.000" lcOvertakeRight="0.000" lcCooperative="0.826" lcLookaheadLeft="65.977"/>
		<vType id="car11" tau="2.155" accel="0.242" decel="3.480" maxSpeed="22.374" carFollowModel="EIDM" sigma="0.953" lcSigma="0.601" lcSublane="0.575" lcPushy="0.840" lcAssertive="26.090" lcSpeedGainRight="3.118" vClass="passenger" lcStrategic="99.000" maxSpeedLat="3.500" lcKeepRight="0.000" lcOvertakeRight="0.000" lcCooperative="0.826" lcLookaheadLeft="65.977"/>
		<vType id="car12" tau="3.418" accel="0.242" decel="3.480" maxSpeed="24.519" carFollowModel="EIDM" sigma="0.953" lcSigma="0.601" lcSublane="0.575" lcPushy="0.840" lcAssertive="26.090" lcSpeedGainRight="3.118" vClass="passenger" lcStrategic="99.000" maxSpeedLat="3.500" lcKeepRight="0.000" lcOvertakeRight="0.000" lcCooperative="0.826" lcLookaheadLeft="65.977"/>
		<vType id="car13" tau="5.160" accel="0.242" decel="3.480" maxSpeed="23.331" carFollowModel="EIDM" sigma="0.953" lcSigma="0.601" lcSublane="0.575" lcPushy="0.840" lcAssertive="26.090" lcSpeedGainRight="3.118" vClass="passenger" lcStrategic="99.000" maxSpeedLat="3.500" lcKeepRight="0.000" lcOvertakeRight="0.000" lcCooperative="0.826" lcLookaheadLeft="65.977"/>
		<vType id="car14" tau="1.185" accel="0.242" decel="3.480" maxSpeed="23.712" carFollowModel="EIDM" sigma="0.953" lcSigma="0.601" lcSublane="0.575" lcPushy="0.840" lcAssertive="26.090" lcSpeedGainRight="3.118" vClass="passenger" lcStrategic="99.000" maxSpeedLat="3.500" lcKeepRight="0.000" lcOvertakeRight="0.000" lcCooperative="0.826" lcLookaheadLeft="65.977"/>
		<vType id="car15" tau="0.880" accel="0.242" decel="3.480" maxSpeed="22.505" carFollowModel="EIDM" sigma="0.953" lcSigma="0.601" lcSublane="0.575" lcPushy="0.840" lcAssertive="26.090" lcSpeedGainRight="3.118" vClass="passenger" lcStrategic="99.000" maxSpeedLat="3.500" lcKeepRight="0.000" lcOvertakeRight="0.000" lcCooperative="0.826" lcLookaheadLeft="65.977"/>
		<vType id="car16" tau="0.895" accel="0.242" decel="3.480" maxSpeed="24.157" carFollowModel="EIDM" sigma="0.953" lcSigma="0.601" lcSublane="0.575" lcPushy="0.840" lcAssertive="26.090" lcSpeedGainRight="3.118" vClass="passenger" lcStrategic="99.000" maxSpeedLat="3.500" lcKeepRight="0.000" lcOvertakeRight="0.000" lcCooperative="0.826" lcLookaheadLeft="65.977"/>
		<vType id="car17" tau="0.732" accel="0.242" decel="3.480" maxSpeed="24.768" carFollowModel="EIDM" sigma="0.953" lcSigma="0.601" lcSublane="0.575" lcPushy="0.840" lcAssertive="26.090" lcSpeedGainRight="3.118" vClass="passenger" lcStrategic="99.000" maxSpeedLat="3.500" lcKeepRight="0.000" lcOvertakeRight="0.000" lcCooperative="0.826" lcLookaheadLeft="65.977"/>
		<vType id="car18" tau="0.692" accel="0.242" decel="3.480" maxSpeed="24.350" carFollowModel="EIDM" sigma="0.953" lcSigma="0.601" lcSublane="0.575" lcPushy="0.840" lcAssertive="26.090" lcSpeedGainRight="3.118" vClass="passenger" lcStrategic="99.000" maxSpeedLat="3.500" lcKeepRight="0.000" lcOvertakeRight="0.000" lcCooperative="0.826" lcLookaheadLeft="65.977"/>
		<vType id="car19" tau="1.078" accel="0.242" decel="3.480" maxSpeed="22.655" carFollowModel="EIDM" sigma="0.953" lcSigma="0.601" lcSublane="0.575" lcPushy="0.840" lcAssertive="26.090" lcSpeedGainRight="3.118" vClass="passenger" lcStrategic="99.000" maxSpeedLat="3.500" lcKeepRight="0.000" lcOvertakeRight="0.000" lcCooperative="0.826" lcLookaheadLeft="65.977"/>
		<vType id="car20" tau="2.671" accel="0.242" decel="3.480" maxSpeed="24.230" carFollowModel="EIDM" sigma="0.953" lcSigma="0.601" lcSublane="0.575" lcPushy="0.840" lcAssertive="26.090" lcSpeedGainRight="3.118" vClass="passenger" lcStrategic="99.000" maxSpeedLat="3.500" lcKeepRight="0.000" lcOvertakeRight="0.000" lcCooperative="0.826" lcLookaheadLeft="65.977"/>
		<vType id="car21" tau="1.967" accel="0.242" decel="3.480" maxSpeed="23.235" carFollowModel="EIDM" sigma="0.953" lcSigma="0.601" lcSublane="0.575" lcPushy="0.840" lcAssertive="26.090" lcSpeedGainRight="3.118" vClass="passenger" lcStrategic="99.000" maxSpeedLat="3.500" lcKeepRight="0.000" lcOvertakeRight="0.000" lcCooperative="0.826" lcLookaheadLeft="65.977"/>
		<vType id="car22" tau="1.378" accel="0.242" decel="3.480" maxSpeed="23.812" carFollowModel="EIDM" sigma="0.953" lcSigma="0.601" lcSublane="0.575" lcPushy="0.840" lcAssertive="26.090" lcSpeedGainRight="3.118" vClass="passenger" lcStrategic="99.000" maxSpeedLat="3.500" lcKeepRight="0.000" lcOvertakeRight="0.000" lcCooperative="0.826" lcLookaheadLeft="65.977"/>
		<vType id="car23" tau="3.802" accel="0.242" decel="3.480" maxSpeed="21.410" carFollowModel="EIDM" sigma="0.953" lcSigma="0.601" lcSublane="0.575" lcPushy="0.840" lcAssertive="26.090" lcSpeedGainRight="3.118" vClass="passenger" lcStrategic="99.000" maxSpeedLat="3.500" lcKeepRight="0.000" lcOvertakeRight="0.000" lcCooperative="0.826" lcLookaheadLeft="65.977"/>
		<vType id="car24" tau="2.339" accel="0.242" decel="3.480" maxSpeed="22.454" carFollowModel="EIDM" sigma="0.953" lcSigma="0.601" lcSublane="0.575" lcPushy="0.840" lcAssertive="26.090" lcSpeedGainRight="3.118" vClass="passenger" lcStrategic="99.000" maxSpeedLat="3.500" lcKeepRight="0.000" lcOvertakeRight="0.000" lcCooperative="0.826" lcLookaheadLeft="65.977"/>
		<vType id="car25" tau="5.038" accel="0.242" decel="3.480" maxSpeed="22.863" carFollowModel="EIDM" sigma="0.953" lcSigma="0.601" lcSublane="0.575" lcPushy="0.840" lcAssertive="26.090" lcSpeedGainRight="3.118" vClass="passenger" lcStrategic="99.000" maxSpeedLat="3.500" lcKeepRight="0.000" lcOvertakeRight="0.000" lcCooperative="0.826" lcLookaheadLeft="65.977"/>
		<vType id="car26" tau="4.601" accel="0.242" decel="3.480" maxSpeed="23.066" carFollowModel="EIDM" sigma="0.953" lcSigma="0.601" lcSublane="0.575" lcPushy="0.840" lcAssertive="26.090" lcSpeedGainRight="3.118" vClass="passenger" lcStrategic="99.000" maxSpeedLat="3.500" lcKeepRight="0.000" lcOvertakeRight="0.000" lcCooperative="0.826" lcLookaheadLeft="65.977"/>
		<vType id="car27" tau="5.594" accel="0.242" decel="3.480" maxSpeed="21.454" carFollowModel="EIDM" sigma="0.953" lcSigma="0.601" lcSublane="0.575" lcPushy="0.840" lcAssertive="26.090" lcSpeedGainRight="3.118" vClass="passenger" lcStrategic="99.000" maxSpeedLat="3.500" lcKeepRight="0.000" lcOvertakeRight="0.000" lcCooperative="0.826" lcLookaheadLeft="65.977"/>
		<vType id="car28" tau="4.570" accel="0.242" decel="3.480" maxSpeed="22.026" carFollowModel="EIDM" sigma="0.953" lcSigma="0.601" lcSublane="0.575" lcPushy="0.840" lcAssertive="26.090" lcSpeedGainRight="3.118" vClass="passenger" lcStrategic="99.000" maxSpeedLat="3.500" lcKeepRight="0.000" lcOvertakeRight="0.000" lcCooperative="0.826" lcLookaheadLeft="65.977"/>
		<vType id="car29" tau="0.618" accel="0.242" decel="3.480" maxSpeed="25.575" carFollowModel="EIDM" sigma="0.953" lcSigma="0.601" lcSublane="0.575" lcPushy="0.840" lcAssertive="26.090" lcSpeedGainRight="3.118" vClass="passenger" lcStrategic="99.000" maxSpeedLat="3.500" lcKeepRight="0.000" lcOvertakeRight="0.000" lcCooperative="0.826" lcLookaheadLeft="65.977"/>
		<vType id="car30" tau="4.847" accel="0.242" decel="3.480" maxSpeed="23.782" carFollowModel="EIDM" sigma="0.953" lcSigma="0.601" lcSublane="0.575" lcPushy="0.840" lcAssertive="26.090" lcSpeedGainRight="3.118" vClass="passenger" lcStrategic="99.000" maxSpeedLat="3.500" lcKeepRight="0.000" lcOvertakeRight="0.000" lcCooperative="0.826" lcLookaheadLeft="65.977"/>
		<vType id="car31" tau="0.951" accel="0.242" decel="3.480" maxSpeed="23.234" carFollowModel="EIDM" sigma="0.953" lcSigma="0.601" lcSublane="0.575" lcPushy="0.840" lcAssertive="26.090" lcSpeedGainRight="3.118" vClass="passenger" lcStrategic="99.000" maxSpeedLat="3.500" lcKeepRight="0.000" lcOvertakeRight="0.000" lcCooperative="0.826" lcLookaheadLeft="65.977"/>
		<vType id="car32" tau="3.983" accel="0.242" decel="3.480" maxSpeed="24.458" carFollowModel="EIDM" sigma="0.953" lcSigma="0.601" lcSublane="0.575" lcPushy="0.840" lcAssertive="26.090" lcSpeedGainRight="3.118" vClass="passenger" lcStrategic="99.000" maxSpeedLat="3.500" lcKeepRight="0.000" lcOvertakeRight="0.000" lcCooperative="0.826" lcLookaheadLeft="65.977"/>
		<vType id="car33" tau="1.427" accel="0.242" decel="3.480" maxSpeed="25.125" carFollowModel="EIDM" sigma="0.953" lcSigma="0.601" lcSublane="0.575" lcPushy="0.840" lcAssertive="26.090" lcSpeedGainRight="3.118" vClass="passenger" lcStrategic="99.000" maxSpeedLat="3.500" lcKeepRight="0.000" lcOvertakeRight="0.000" lcCooperative="0.826" lcLookaheadLeft="65.977"/>
		<vType id="car34" tau="5.330" accel="0.242" decel="3.480" maxSpeed="20.558" carFollowModel="EIDM" sigma="0.953" lcSigma="0.601" lcSublane="0.575" lcPushy="0.840" lcAssertive="26.090" lcSpeedGainRight="3.118" vClass="passenger" lcStrategic="99.000" maxSpeedLat="3.500" lcKeepRight="0.000" lcOvertakeRight="0.000" lcCooperative="0.826" lcLookaheadLeft="65.977"/>
		<vType id="car35" tau="1.584" accel="0.242" decel="3.480" maxSpeed="24.162" carFollowModel="EIDM" sigma="0.953" lcSigma="0.601" lcSublane="0.575" lcPushy="0.840" lcAssertive="26.090" lcSpeedGainRight="3.118" vClass="passenger" lcStrategic="99.000" maxSpeedLat="3.500" lcKeepRight="0.000" lcOvertakeRight="0.000" lcCooperative="0.826" lcLookaheadLeft="65.977"/>
		<vType id="car36" tau="4.476" accel="0.242" decel="3.480" maxSpeed="24.632" carFollowModel="EIDM" sigma="0.953" lcSigma="0.601" lcSublane="0.575" lcPushy="0.840" lcAssertive="26.090" lcSpeedGainRight="3.118" vClass="passenger" lcStrategic="99.000" maxSpeedLat="3.500" lcKeepRight="0.000" lcOvertakeRight="0.000" lcCooperative="0.826" lcLookaheadLeft="65.977"/>
		<vType id="car37" tau="5.437" accel="0.242" decel="3.480" maxSpeed="23.848" carFollowModel="EIDM" sigma="0.953" lcSigma="0.601" lcSublane="0.575" lcPushy="0.840" lcAssertive="26.090" lcSpeedGainRight="3.118" vClass="passenger" lcStrategic="99.000" maxSpeedLat="3.500" lcKeepRight="0.000" lcOvertakeRight="0.000" lcCooperative="0.826" lcLookaheadLeft="65.977"/>
		<vType id="car38" tau="3.502" accel="0.242" decel="3.480" maxSpeed="24.832" carFollowModel="EIDM" sigma="0.953" lcSigma="0.601" lcSublane="0.575" lcPushy="0.840" lcAssertive="26.090" lcSpeedGainRight="3.118" vClass="passenger" lcStrategic="99.000" maxSpeedLat="3.500" lcKeepRight="0.000" lcOvertakeRight="0.000" lcCooperative="0.826" lcLookaheadLeft="65.977"/>
		<vType id="car39" tau="0.706" accel="0.242" decel="3.480" maxSpeed="23.901" carFollowModel="EIDM" sigma="0.953" lcSigma="0.601" lcSublane="0.575" lcPushy="0.840" lcAssertive="26.090" lcSpeedGainRight="3.118" vClass="passenger" lcStrategic="99.000" maxSpeedLat="3.500" lcKeepRight="0.000" lcOvertakeRight="0.000" lcCooperative="0.826" lcLookaheadLeft="65.977"/>
		<vType id="car40" tau="5.250" accel="0.242" decel="3.480" maxSpeed="22.822" carFollowModel="EIDM" sigma="0.953" lcSigma="0.601" lcSublane="0.575" lcPushy="0.840" lcAssertive="26.090" lcSpeedGainRight="3.118" vClass="passenger" lcStrategic="99.000" maxSpeedLat="3.500" lcKeepRight="0.000" lcOvertakeRight="0.000" lcCooperative="0.826" lcLookaheadLeft="65.977"/>
		<vType id="car41" tau="0.779" accel="0.242" decel="3.480" maxSpeed="22.212" carFollowModel="EIDM" sigma="0.953" lcSigma="0.601" lcSublane="0.575" lcPushy="0.840" lcAssertive="26.090" lcSpeedGainRight="3.118" vClass="passenger" lcStrategic="99.000" maxSpeedLat="3.500" lcKeepRight="0.000" lcOvertakeRight="0.000" lcCooperative="0.826" lcLookaheadLeft="65.977"/>
		<vType id="car42" tau="0.499" accel="0.242" decel="3.480" maxSpeed="23.985" carFollowModel="EIDM" sigma="0.953" lcSigma="0.601" lcSublane="0.575" lcPushy="0.840" lcAssertive="26.090" lcSpeedGainRight="3.118" vClass="passenger" lcStrategic="99.000" maxSpeedLat="3.500" lcKeepRight="0.000" lcOvertakeRight="0.000" lcCooperative="0.826" lcLookaheadLeft="65.977"/>
		<vType id="car43" tau="1.421" accel="0.242" decel="3.480" maxSpeed="22.919" carFollowModel="EIDM" sigma="0.953" lcSigma="0.601" lcSublane="0.575" lcPushy="0.840" lcAssertive="26.090" lcSpeedGainRight="3.118" vClass="passenger" lcStrategic="99.000" maxSpeedLat="3.500" lcKeepRight="0.000" lcOvertakeRight="0.000" lcCooperative="0.826" lcLookaheadLeft="65.977"/>
		<vType id="car44" tau="5.669" accel="0.242" decel="3.480" maxSpeed="21.806" carFollowModel="EIDM" sigma="0.953" lcSigma="0.601" lcSublane="0.575" lcPushy="0.840" lcAssertive="26.090" lcSpeedGainRight="3.118" vClass="passenger" lcStrategic="99.000" maxSpeedLat="3.500" lcKeepRight="0.000" lcOvertakeRight="0.000" lcCooperative="0.826" lcLookaheadLeft="65.977"/>
		<vType id="car45" tau="4.123" accel="0.242" decel="3.480" maxSpeed="25.868" carFollowModel="EIDM" sigma="0.953" lcSigma="0.601" lcSublane="0.575" lcPushy="0.840" lcAssertive="26.090" lcSpeedGainRight="3.118" vClass="passenger" lcStrategic="99.000" maxSpeedLat="3.500" lcKeepRight="0.000" lcOvertakeRight="0.000" lcCooperative="0.826" lcLookaheadLeft="65.977"/>
		<vType id="car46" tau="4.349" accel="0.242" decel="3.480" maxSpeed="22.511" carFollowModel="EIDM" sigma="0.953" lcSigma="0.601" lcSublane="0.575" lcPushy="0.840" lcAssertive="26.090" lcSpeedGainRight="3.118" vClass="passenger" lcStrategic="99.000" maxSpeedLat="3.500" lcKeepRight="0.000" lcOvertakeRight="0.000" lcCooperative="0.826" lcLookaheadLeft="65.977"/>
		<vType id="car47" tau="2.074" accel="0.242" decel="3.480" maxSpeed="25.510" carFollowModel="EIDM" sigma="0.953" lcSigma="0.601" lcSublane="0.575" lcPushy="0.840" lcAssertive="26.090" lcSpeedGainRight="3.118" vClass="passenger" lcStrategic="99.000" maxSpeedLat="3.500" lcKeepRight="0.000" lcOvertakeRight="0.000" lcCooperative="0.826" lcLookaheadLeft="65.977"/>
		<vType id="car48" tau="2.335" accel="0.242" decel="3.480" maxSpeed="23.018" carFollowModel="EIDM" sigma="0.953" lcSigma="0.601" lcSublane="0.575" lcPushy="0.840" lcAssertive="26.090" lcSpeedGainRight="3.118" vClass="passenger" lcStrategic="99.000" maxSpeedLat="3.500" lcKeepRight="0.000" lcOvertakeRight="0.000" lcCooperative="0.826" lcLookaheadLeft="65.977"/>
		<vType id="car49" tau="1.810" accel="0.242" decel="3.480" maxSpeed="22.109" carFollowModel="EIDM" sigma="0.953" lcSigma="0.601" lcSublane="0.575" lcPushy="0.840" lcAssertive="26.090" lcSpeedGainRight="3.118" vClass="passenger" lcStrategic="99.000" maxSpeedLat="3.500" lcKeepRight="0.000" lcOvertakeRight="0.000" lcCooperative="0.826" lcLookaheadLeft="65.977"/>
		<vType id="car50" tau="3.874" accel="0.242" decel="3.480" maxSpeed="22.310" carFollowModel="EIDM" sigma="0.953" lcSigma="0.601" lcSublane="0.575" lcPushy="0.840" lcAssertive="26.090" lcSpeedGainRight="3.118" vClass="passenger" lcStrategic="99.000" maxSpeedLat="3.500" lcKeepRight="0.000" lcOvertakeRight="0.000" lcCooperative="0.826" lcLookaheadLeft="65.977"/>
		<vType id="car51" tau="2.608" accel="0.242" decel="3.480" maxSpeed="21.765" carFollowModel="EIDM" sigma="0.953" lcSigma="0.601" lcSublane="0.575" lcPushy="0.840" lcAssertive="26.090" lcSpeedGainRight="3.118" vClass="passenger" lcStrategic="99.000" maxSpeedLat="3.500" lcKeepRight="0.000" lcOvertakeRight="0.000" lcCooperative="0.826" lcLookaheadLeft="65.977"/>
		<vType id="car52" tau="4.327" accel="0.242" decel="3.480" maxSpeed="23.051" carFollowModel="EIDM" sigma="0.953" lcSigma="0.601" lcSublane="0.575" lcPushy="0.840" lcAssertive="26.090" lcSpeedGainRight="3.118" vClass="passenger" lcStrategic="99.000" maxSpeedLat="3.500" lcKeepRight="0.000" lcOvertakeRight="0.000" lcCooperative="0.826" lcLookaheadLeft="65.977"/>
		<vType id="car53" tau="1.099" accel="0.242" decel="3.480" maxSpeed="21.839" carFollowModel="EIDM" sigma="0.953" lcSigma="0.601" lcSublane="0.575" lcPushy="0.840" lcAssertive="26.090" lcSpeedGainRight="3.118" vClass="passenger" lcStrategic="99.000" maxSpeedLat="3.500" lcKeepRight="0.000" lcOvertakeRight="0.000" lcCooperative="0.826" lcLookaheadLeft="65.977"/>
		<vType id="car54" tau="4.875" accel="0.242" decel="3.480" maxSpeed="22.292" carFollowModel="EIDM" sigma="0.953" lcSigma="0.601" lcSublane="0.575" lcPushy="0.840" lcAssertive="26.090" lcSpeedGainRight="3.118" vClass="passenger" lcStrategic="99.000" maxSpeedLat="3.500" lcKeepRight="0.000" lcOvertakeRight="0.000" lcCooperative="0.826" lcLookaheadLeft="65.977"/>
		<vType id="car55" tau="3.296" accel="0.242" decel="3.480" maxSpeed="22.754" carFollowModel="EIDM" sigma="0.953" lcSigma="0.601" lcSublane="0.575" lcPushy="0.840" lcAssertive="26.090" lcSpeedGainRight="3.118" vClass="passenger" lcStrategic="99.000" maxSpeedLat="3.500" lcKeepRight="0.000" lcOvertakeRight="0.000" lcCooperative="0.826" lcLookaheadLeft="65.977"/>
		<vType id="car56" tau="1.495" accel="0.242" decel="3.480" maxSpeed="22.464" carFollowModel="EIDM" sigma="0.953" lcSigma="0.601" lcSublane="0.575" lcPushy="0.840" lcAssertive="26.090" lcSpeedGainRight="3.118" vClass="passenger" lcStrategic="99.000" maxSpeedLat="3.500" lcKeepRight="0.000" lcOvertakeRight="0.000" lcCooperative="0.826" lcLookaheadLeft="65.977"/>
		<vType id="car57" tau="1.016" accel="0.242" decel="3.480" maxSpeed="23.364" carFollowModel="EIDM" sigma="0.953" lcSigma="0.601" lcSublane="0.575" lcPushy="0.840" lcAssertive="26.090" lcSpeedGainRight="3.118" vClass="passenger" lcStrategic="99.000" maxSpeedLat="3.500" lcKeepRight="0.000" lcOvertakeRight="0.000" lcCooperative="0.826" lcLookaheadLeft="65.977"/>
		<vType id="car58" tau="3.389" accel="0.242" decel="3.480" maxSpeed="22.972" carFollowModel="EIDM" sigma="0.953" lcSigma="0.601" lcSublane="0.575" lcPushy="0.840" lcAssertive="26.090" lcSpeedGainRight="3.118" vClass="passenger" lcStrategic="99.000" maxSpeedLat="3.500" lcKeepRight="0.000" lcOvertakeRight="0.000" lcCooperative="0.826" lcLookaheadLeft="65.977"/>
		<vType id="car59" tau="2.956" accel="0.242" decel="3.480" maxSpeed="25.062" carFollowModel="EIDM" sigma="0.953" lcSigma="0.601" lcSublane="0.575" lcPushy="0.840" lcAssertive="26.090" lcSpeedGainRight="3.118" vClass="passenger" lcStrategic="99.000" maxSpeedLat="3.500" lcKeepRight="0.000" lcOvertakeRight="0.000" lcCooperative="0.826" lcLookaheadLeft="65.977"/>
		<vType id="car60" tau="4.913" accel="0.242" decel="3.480" maxSpeed="22.327" carFollowModel="EIDM" sigma="0.953" lcSigma="0.601" lcSublane="0.575" lcPushy="0.840" lcAssertive="26.090" lcSpeedGainRight="3.118" vClass="passenger" lcStrategic="99.000" maxSpeedLat="3.500" lcKeepRight="0.000" lcOvertakeRight="0.000" lcCooperative="0.826" lcLookaheadLeft="65.977"/>
		<vType id="car61" tau="4.446" accel="0.242" decel="3.480" maxSpeed="24.407" carFollowModel="EIDM" sigma="0.953" lcSigma="0.601" lcSublane="0.575" lcPushy="0.840" lcAssertive="26.090" lcSpeedGainRight="3.118" vClass="passenger" lcStrategic="99.000" maxSpeedLat="3.500" lcKeepRight="0.000" lcOvertakeRight="0.000" lcCooperative="0.826" lcLookaheadLeft="65.977"/>
		<vType id="car62" tau="1.024" accel="0.242" decel="3.480" maxSpeed="23.452" carFollowModel="EIDM" sigma="0.953" lcSigma="0.601" lcSublane="0.575" lcPushy="0.840" lcAssertive="26.090" lcSpeedGainRight="3.118" vClass="passenger" lcStrategic="99.000" maxSpeedLat="3.500" lcKeepRight="0.000" lcOvertakeRight="0.000" lcCooperative="0.826" lcLookaheadLeft="65.977"/>
		<vType id="car63" tau="5.775" accel="0.242" decel="3.480" maxSpeed="21.156" carFollowModel="EIDM" sigma="0.953" lcSigma="0.601" lcSublane="0.575" lcPushy="0.840" lcAssertive="26.090" lcSpeedGainRight="3.118" vClass="passenger" lcStrategic="99.000" maxSpeedLat="3.500" lcKeepRight="0.000" lcOvertakeRight="0.000" lcCooperative="0.826" lcLookaheadLeft="65.977"/>
		<vType id="car64" tau="2.878" accel="0.242" decel="3.480" maxSpeed="22.980" carFollowModel="EIDM" sigma="0.953" lcSigma="0.601" lcSublane="0.575" lcPushy="0.840" lcAssertive="26.090" lcSpeedGainRight="3.118" vClass="passenger" lcStrategic="99.000" maxSpeedLat="3.500" lcKeepRight="0.000" lcOvertakeRight="0.000" lcCooperative="0.826" lcLookaheadLeft="65.977"/>
		<vType id="car65" tau="1.253" accel="0.242" decel="3.480" maxSpeed="23.198" carFollowModel="EIDM" sigma="0.953" lcSigma="0.601" lcSublane="0.575" lcPushy="0.840" lcAssertive="26.090" lcSpeedGainRight="3.118" vClass="passenger" lcStrategic="99.000" maxSpeedLat="3.500" lcKeepRight="0.000" lcOvertakeRight="0.000" lcCooperative="0.826" lcLookaheadLeft="65.977"/>
		<vType id="car66" tau="4.894" accel="0.242" decel="3.480" maxSpeed="23.345" carFollowModel="EIDM" sigma="0.953" lcSigma="0.601" lcSublane="0.575" lcPushy="0.840" lcAssertive="26.090" lcSpeedGainRight="3.118" vClass="passenger" lcStrategic="99.000" maxSpeedLat="3.500" lcKeepRight="0.000" lcOvertakeRight="0.000" lcCooperative="0.826" lcLookaheadLeft="65.977"/>
		<vType id="car67" tau="1.710" accel="0.242" decel="3.480" maxSpeed="22.441" carFollowModel="EIDM" sigma="0.953" lcSigma="0.601" lcSublane="0.575" lcPushy="0.840" lcAssertive="26.090" lcSpeedGainRight="3.118" vClass="passenger" lcStrategic="99.000" maxSpeedLat="3.500" lcKeepRight="0.000" lcOvertakeRight="0.000" lcCooperative="0.826" lcLookaheadLeft="65.977"/>
		<vType id="car68" tau="4.878" accel="0.242" decel="3.480" maxSpeed="23.729" carFollowModel="EIDM" sigma="0.953" lcSigma="0.601" lcSublane="0.575" lcPushy="0.840" lcAssertive="26.090" lcSpeedGainRight="3.118" vClass="passenger" lcStrategic="99.000" maxSpeedLat="3.500" lcKeepRight="0.000" lcOvertakeRight="0.000" lcCooperative="0.826" lcLookaheadLeft="65.977"/>
		<vType id="car69" tau="2.679" accel="0.242" decel="3.480" maxSpeed="24.134" carFollowModel="EIDM" sigma="0.953" lcSigma="0.601" lcSublane="0.575" lcPushy="0.840" lcAssertive="26.090" lcSpeedGainRight="3.118" vClass="passenger" lcStrategic="99.000" maxSpeedLat="3.500" lcKeepRight="0.000" lcOvertakeRight="0.000" lcCooperative="0.826" lcLookaheadLeft="65.977"/>
		<vType id="car70" tau="4.896" accel="0.242" decel="3.480" maxSpeed="22.897" carFollowModel="EIDM" sigma="0.953" lcSigma="0.601" lcSublane="0.575" lcPushy="0.840" lcAssertive="26.090" lcSpeedGainRight="3.118" vClass="passenger" lcStrategic="99.000" maxSpeedLat="3.500" lcKeepRight="0.000" lcOvertakeRight="0.000" lcCooperative="0.826" lcLookaheadLeft="65.977"/>
		<vType id="car71" tau="3.637" accel="0.242" decel="3.480" maxSpeed="22.671" carFollowModel="EIDM" sigma="0.953" lcSigma="0.601" lcSublane="0.575" lcPushy="0.840" lcAssertive="26.090" lcSpeedGainRight="3.118" vClass="passenger" lcStrategic="99.000" maxSpeedLat="3.500" lcKeepRight="0.000" lcOvertakeRight="0.000" lcCooperative="0.826" lcLookaheadLeft="65.977"/>
		<vType id="car72" tau="1.581" accel="0.242" decel="3.480" maxSpeed="25.341" carFollowModel="EIDM" sigma="0.953" lcSigma="0.601" lcSublane="0.575" lcPushy="0.840" lcAssertive="26.090" lcSpeedGainRight="3.118" vClass="passenger" lcStrategic="99.000" maxSpeedLat="3.500" lcKeepRight="0.000" lcOvertakeRight="0.000" lcCooperative="0.826" lcLookaheadLeft="65.977"/>
		<vType id="car73" tau="2.612" accel="0.242" decel="3.480" maxSpeed="23.865" carFollowModel="EIDM" sigma="0.953" lcSigma="0.601" lcSublane="0.575" lcPushy="0.840" lcAssertive="26.090" lcSpeedGainRight="3.118" vClass="passenger" lcStrategic="99.000" maxSpeedLat="3.500" lcKeepRight="0.000" lcOvertakeRight="0.000" lcCooperative="0.826" lcLookaheadLeft="65.977"/>
		<vType id="car74" tau="1.608" accel="0.242" decel="3.480" maxSpeed="25.041" carFollowModel="EIDM" sigma="0.953" lcSigma="0.601" lcSublane="0.575" lcPushy="0.840" lcAssertive="26.090" lcSpeedGainRight="3.118" vClass="passenger" lcStrategic="99.000" maxSpeedLat="3.500" lcKeepRight="0.000" lcOvertakeRight="0.000" lcCooperative="0.826" lcLookaheadLeft="65.977"/>
		<vType id="car75" tau="3.039" accel="0.242" decel="3.480" maxSpeed="24.712" carFollowModel="EIDM" sigma="0.953" lcSigma="0.601" lcSublane="0.575" lcPushy="0.840" lcAssertive="26.090" lcSpeedGainRight="3.118" vClass="passenger" lcStrategic="99.000" maxSpeedLat="3.500" lcKeepRight="0.000" lcOvertakeRight="0.000" lcCooperative="0.826" lcLookaheadLeft="65.977"/>
		<vType id="car76" tau="5.857" accel="0.242" decel="3.480" maxSpeed="23.513" carFollowModel="EIDM" sigma="0.953" lcSigma="0.601" lcSublane="0.575" lcPushy="0.840" lcAssertive="26.090" lcSpeedGainRight="3.118" vClass="passenger" lcStrategic="99.000" maxSpeedLat="3.500" lcKeepRight="0.000" lcOvertakeRight="0.000" lcCooperative="0.826" lcLookaheadLeft="65.977"/>
		<vType id="car77" tau="5.210" accel="0.242" decel="3.480" maxSpeed="22.731" carFollowModel="EIDM" sigma="0.953" lcSigma="0.601" lcSublane="0.575" lcPushy="0.840" lcAssertive="26.090" lcSpeedGainRight="3.118" vClass="passenger" lcStrategic="99.000" maxSpeedLat="3.500" lcKeepRight="0.000" lcOvertakeRight="0.000" lcCooperative="0.826" lcLookaheadLeft="65.977"/>
		<vType id="car78" tau="4.028" accel="0.242" decel="3.480" maxSpeed="23.687" carFollowModel="EIDM" sigma="0.953" lcSigma="0.601" lcSublane="0.575" lcPushy="0.840" lcAssertive="26.090" lcSpeedGainRight="3.118" vClass="passenger" lcStrategic="99.000" maxSpeedLat="3.500" lcKeepRight="0.000" lcOvertakeRight="0.000" lcCooperative="0.826" lcLookaheadLeft="65.977"/>
		<vType id="car79" tau="5.820" accel="0.242" decel="3.480" maxSpeed="24.895" carFollowModel="EIDM" sigma="0.953" lcSigma="0.601" lcSublane="0.575" lcPushy="0.840" lcAssertive="26.090" lcSpeedGainRight="3.118" vClass="passenger" lcStrategic="99.000" maxSpeedLat="3.500" lcKeepRight="0.000" lcOvertakeRight="0.000" lcCooperative="0.826" lcLookaheadLeft="65.977"/>
		<vType id="car80" tau="0.524" accel="0.242" decel="3.480" maxSpeed="26.500" carFollowModel="EIDM" sigma="0.953" lcSigma="0.601" lcSublane="0.575" lcPushy="0.840" lcAssertive="26.090" lcSpeedGainRight="3.118" vClass="passenger" lcStrategic="99.000" maxSpeedLat="3.500" lcKeepRight="0.000" lcOvertakeRight="0.000" lcCooperative="0.826" lcLookaheadLeft="65.977"/>
		<vType id="car81" tau="2.081" accel="0.242" decel="3.480" maxSpeed="21.895" carFollowModel="EIDM" sigma="0.953" lcSigma="0.601" lcSublane="0.575" lcPushy="0.840" lcAssertive="26.090" lcSpeedGainRight="3.118" vClass="passenger" lcStrategic="99.000" maxSpeedLat="3.500" lcKeepRight="0.000" lcOvertakeRight="0.000" lcCooperative="0.826" lcLookaheadLeft="65.977"/>