<?xml version="1.0" encoding="UTF-8"?>

<!-- generated on 2024-08-13 09:40:35.780445 by randomTrips.py UNKNOWN
<configuration>
    <net-file value="highway.net.xml"/>
    <output-trip-file value="bus.trips.xml"/>
    <route-file value="output.trips2.xml"/>
    <prefix value="bus"/>
    <trip-attributes value="departLane=&quot;best&quot; departSpeed=&quot;5&quot; "/>
    <lanes value="True"/>
    <fringe-factor value="100000"/>
    <seed value="30"/>
    <min-distance value="10.0"/>
    <max-distance value="500000.0"/>
    <validate value="True"/>
    <end value="754.0"/>
    <period value="1.84"/>
</configuration>
-->

<!-- generated on 2024-08-13 09:40:35 by Eclipse SUMO duarouter Version 1.20.0
<configuration xmlns:xsi="http://www.w3.org/2001/XMLSchema-instance" xsi:noNamespaceSchemaLocation="http://sumo.dlr.de/xsd/duarouterConfiguration.xsd">

    <input>
        <net-file value="highway.net.xml"/>
        <route-files value="bus.trips.xml"/>
    </input>

    <output>
        <output-file value="bus.trips.xml.tmp"/>
        <alternatives-output value="NUL"/>
        <write-trips value="true"/>
    </output>

    <time>
        <begin value="0"/>
        <end value="754.0"/>
    </time>

    <report>
        <no-warnings value="true"/>
        <ignore-errors value="true"/>
        <no-step-log value="true"/>
    </report>

</configuration>
-->

<routes xmlns:xsi="http://www.w3.org/2001/XMLSchema-instance" xsi:noNamespaceSchemaLocation="http://sumo.dlr.de/xsd/routes_file.xsd">
    <trip id="bus0" type="bus0" depart="0.00" departLane="best" departSpeed="5.00" from="E0" to="E1"/>
    <trip id="bus1" type="bus1" depart="1.84" departLane="best" departSpeed="5.00" from="E0" to="E1"/>
    <trip id="bus2" type="bus2" depart="3.68" departLane="best" departSpeed="5.00" from="E0" to="E1"/>
    <trip id="bus3" type="bus3" depart="5.52" departLane="best" departSpeed="5.00" from="E0" to="E1"/>
    <trip id="bus4" type="bus4" depart="7.36" departLane="best" departSpeed="5.00" from="E0" to="E1"/>
    <trip id="bus5" type="bus5" depart="9.20" departLane="best" departSpeed="5.00" from="E0" to="E1"/>
    <trip id="bus6" type="bus6" depart="11.04" departLane="best" departSpeed="5.00" from="E0" to="E1"/>
    <trip id="bus7" type="bus7" depart="12.88" departLane="best" departSpeed="5.00" from="E0" to="E1"/>
    <trip id="bus8" type="bus8" depart="14.72" departLane="best" departSpeed="5.00" from="E0" to="E1"/>
    <trip id="bus9" type="bus9" depart="16.56" departLane="best" departSpeed="5.00" from="E0" to="E1"/>
    <trip id="bus10" type="bus10" depart="18.40" departLane="best" departSpeed="5.00" from="E0" to="E1"/>
    <trip id="bus11" type="bus11" depart="20.24" departLane="best" departSpeed="5.00" from="E0" to="E1"/>
    <trip id="bus12" type="bus12" depart="22.08" departLane="best" departSpeed="5.00" from="E0" to="E1"/>
    <trip id="bus13" type="bus13" depart="23.92" departLane="best" departSpeed="5.00" from="E0" to="E1"/>
    <trip id="bus14" type="bus14" depart="25.76" departLane="best" departSpeed="5.00" from="E0" to="E1"/>
    <trip id="bus15" type="bus15" depart="27.60" departLane="best" departSpeed="5.00" from="E0" to="E1"/>
    <trip id="bus16" type="bus16" depart="29.44" departLane="best" departSpeed="5.00" from="E0" to="E1"/>
    <trip id="bus17" type="bus17" depart="31.28" departLane="best" departSpeed="5.00" from="E0" to="E1"/>
    <trip id="bus18" type="bus18" depart="33.12" departLane="best" departSpeed="5.00" from="E0" to="E1"/>
    <trip id="bus19" type="bus19" depart="34.96" departLane="best" departSpeed="5.00" from="E0" to="E1"/>
    <trip id="bus20" type="bus20" depart="36.80" departLane="best" departSpeed="5.00" from="E0" to="E1"/>
    <trip id="bus21" type="bus21" depart="38.64" departLane="best" departSpeed="5.00" from="E0" to="E1"/>
    <trip id="bus22" type="bus22" depart="40.48" departLane="best" departSpeed="5.00" from="E0" to="E1"/>
    <trip id="bus23" type="bus23" depart="42.32" departLane="best" departSpeed="5.00" from="E0" to="E1"/>
    <trip id="bus24" type="bus24" depart="44.16" departLane="best" departSpeed="5.00" from="E0" to="E1"/>
    <trip id="bus25" type="bus25" depart="46.00" departLane="best" departSpeed="5.00" from="E0" to="E1"/>
    <trip id="bus26" type="bus26" depart="47.84" departLane="best" departSpeed="5.00" from="E0" to="E1"/>
    <trip id="bus27" type="bus27" depart="49.68" departLane="best" departSpeed="5.00" from="E0" to="E1"/>
    <trip id="bus28" type="bus28" depart="51.52" departLane="best" departSpeed="5.00" from="E0" to="E1"/>
    <trip id="bus29" type="bus29" depart="53.36" departLane="best" departSpeed="5.00" from="E0" to="E1"/>
    <trip id="bus30" type="bus30" depart="55.20" departLane="best" departSpeed="5.00" from="E0" to="E1"/>
    <trip id="bus31" type="bus31" depart="57.04" departLane="best" departSpeed="5.00" from="E0" to="E1"/>
    <trip id="bus32" type="bus32" depart="58.88" departLane="best" departSpeed="5.00" from="E0" to="E1"/>
    <trip id="bus33" type="bus33" depart="60.72" departLane="best" departSpeed="5.00" from="E0" to="E1"/>
    <trip id="bus34" type="bus34" depart="62.56" departLane="best" departSpeed="5.00" from="E0" to="E1"/>
    <trip id="bus35" type="bus35" depart="64.40" departLane="best" departSpeed="5.00" from="E0" to="E1"/>
    <trip id="bus36" type="bus36" depart="66.24" departLane="best" departSpeed="5.00" from="E0" to="E1"/>
    <trip id="bus37" type="bus37" depart="68.08" departLane="best" departSpeed="5.00" from="E0" to="E1"/>
    <trip id="bus38" type="bus38" depart="69.92" departLane="best" departSpeed="5.00" from="E0" to="E1"/>
    <trip id="bus39" type="bus39" depart="71.76" departLane="best" departSpeed="5.00" from="E0" to="E1"/>
    <trip id="bus40" type="bus40" depart="73.60" departLane="best" departSpeed="5.00" from="E0" to="E1"/>
    <trip id="bus41" type="bus41" depart="75.44" departLane="best" departSpeed="5.00" from="E0" to="E1"/>
    <trip id="bus42" type="bus42" depart="77.28" departLane="best" departSpeed="5.00" from="E0" to="E1"/>
    <trip id="bus43" type="bus43" depart="79.12" departLane="best" departSpeed="5.00" from="E0" to="E1"/>
    <trip id="bus44" type="bus44" depart="80.96" departLane="best" departSpeed="5.00" from="E0" to="E1"/>
    <trip id="bus45" type="bus45" depart="82.80" departLane="best" departSpeed="5.00" from="E0" to="E1"/>
    <trip id="bus46" type="bus46" depart="84.64" departLane="best" departSpeed="5.00" from="E0" to="E1"/>
    <trip id="bus47" type="bus47" depart="86.48" departLane="best" departSpeed="5.00" from="E0" to="E1"/>
    <trip id="bus48" type="bus48" depart="88.32" departLane="best" departSpeed="5.00" from="E0" to="E1"/>
    <trip id="bus49" type="bus49" depart="90.16" departLane="best" departSpeed="5.00" from="E0" to="E1"/>
    <trip id="bus50" type="bus50" depart="92.00" departLane="best" departSpeed="5.00" from="E0" to="E1"/>
    <trip id="bus51" type="bus51" depart="93.84" departLane="best" departSpeed="5.00" from="E0" to="E1"/>
    <trip id="bus52" type="bus52" depart="95.68" departLane="best" departSpeed="5.00" from="E0" to="E1"/>
    <trip id="bus53" type="bus53" depart="97.52" departLane="best" departSpeed="5.00" from="E0" to="E1"/>
    <trip id="bus54" type="bus54" depart="99.36" departLane="best" departSpeed="5.00" from="E0" to="E1"/>
    <trip id="bus55" type="bus55" depart="101.20" departLane="best" departSpeed="5.00" from="E0" to="E1"/>
    <trip id="bus56" type="bus56" depart="103.04" departLane="best" departSpeed="5.00" from="E0" to="E1"/>
    <trip id="bus57" type="bus57" depart="104.88" departLane="best" departSpeed="5.00" from="E0" to="E1"/>
    <trip id="bus58" type="bus58" depart="106.72" departLane="best" departSpeed="5.00" from="E0" to="E1"/>
    <trip id="bus59" type="bus59" depart="108.56" departLane="best" departSpeed="5.00" from="E0" to="E1"/>
    <trip id="bus60" type="bus60" depart="110.40" departLane="best" departSpeed="5.00" from="E0" to="E1"/>
    <trip id="bus61" type="bus61" depart="112.24" departLane="best" departSpeed="5.00" from="E0" to="E1"/>
    <trip id="bus62" type="bus62" depart="114.08" departLane="best" departSpeed="5.00" from="E0" to="E1"/>
    <trip id="bus63" type="bus63" depart="115.92" departLane="best" departSpeed="5.00" from="E0" to="E1"/>
    <trip id="bus64" type="bus64" depart="117.76" departLane="best" departSpeed="5.00" from="E0" to="E1"/>
    <trip id="bus65" type="bus65" depart="119.60" departLane="best" departSpeed="5.00" from="E0" to="E1"/>
    <trip id="bus66" type="bus66" depart="121.44" departLane="best" departSpeed="5.00" from="E0" to="E1"/>
    <trip id="bus67" type="bus67" depart="123.28" departLane="best" departSpeed="5.00" from="E0" to="E1"/>
    <trip id="bus68" type="bus68" depart="125.12" departLane="best" departSpeed="5.00" from="E0" to="E1"/>
    <trip id="bus69" type="bus69" depart="126.96" departLane="best" departSpeed="5.00" from="E0" to="E1"/>
    <trip id="bus70" type="bus70" depart="128.80" departLane="best" departSpeed="5.00" from="E0" to="E1"/>
    <trip id="bus71" type="bus71" depart="130.64" departLane="best" departSpeed="5.00" from="E0" to="E1"/>
    <trip id="bus72" type="bus72" depart="132.48" departLane="best" departSpeed="5.00" from="E0" to="E1"/>
    <trip id="bus73" type="bus73" depart="134.32" departLane="best" departSpeed="5.00" from="E0" to="E1"/>
    <trip id="bus74" type="bus74" depart="136.16" departLane="best" departSpeed="5.00" from="E0" to="E1"/>
    <trip id="bus75" type="bus75" depart="138.00" departLane="best" departSpeed="5.00" from="E0" to="E1"/>
    <trip id="bus76" type="bus76" depart="139.84" departLane="best" departSpeed="5.00" from="E0" to="E1"/>
    <trip id="bus77" type="bus77" depart="141.68" departLane="best" departSpeed="5.00" from="E0" to="E1"/>
    <trip id="bus78" type="bus78" depart="143.52" departLane="best" departSpeed="5.00" from="E0" to="E1"/>
    <trip id="bus79" type="bus79" depart="145.36" departLane="best" departSpeed="5.00" from="E0" to="E1"/>
    <trip id="bus80" type="bus80" depart="147.20" departLane="best" departSpeed="5.00" from="E0" to="E1"/>
    <trip id="bus81" type="bus81" depart="149.04" departLane="best" departSpeed="5.00" from="E0" to="E1"/>
    <trip id="bus82" type="bus82" depart="150.88" departLane="best" departSpeed="5.00" from="E0" to="E1"/>
    <trip id="bus83" type="bus83" depart="152.72" departLane="best" departSpeed="5.00" from="E0" to="E1"/>
    <trip id="bus84" type="bus84" depart="154.56" departLane="best" departSpeed="5.00" from="E0" to="E1"/>
    <trip id="bus85" type="bus85" depart="156.40" departLane="best" departSpeed="5.00" from="E0" to="E1"/>
    <trip id="bus86" type="bus86" depart="158.24" departLane="best" departSpeed="5.00" from="E0" to="E1"/>
    <trip id="bus87" type="bus87" depart="160.08" departLane="best" departSpeed="5.00" from="E0" to="E1"/>
    <trip id="bus88" type="bus88" depart="161.92" departLane="best" departSpeed="5.00" from="E0" to="E1"/>
    <trip id="bus89" type="bus89" depart="163.76" departLane="best" departSpeed="5.00" from="E0" to="E1"/>
    <trip id="bus90" type="bus90" depart="165.60" departLane="best" departSpeed="5.00" from="E0" to="E1"/>
    <trip id="bus91" type="bus91" depart="167.44" departLane="best" departSpeed="5.00" from="E0" to="E1"/>
    <trip id="bus92" type="bus92" depart="169.28" departLane="best" departSpeed="5.00" from="E0" to="E1"/>
    <trip id="bus93" type="bus93" depart="171.12" departLane="best" departSpeed="5.00" from="E0" to="E1"/>
    <trip id="bus94" type="bus94" depart="172.96" departLane="best" departSpeed="5.00" from="E0" to="E1"/>
    <trip id="bus95" type="bus95" depart="174.80" departLane="best" departSpeed="5.00" from="E0" to="E1"/>
    <trip id="bus96" type="bus96" depart="176.64" departLane="best" departSpeed="5.00" from="E0" to="E1"/>
    <trip id="bus97" type="bus97" depart="178.48" departLane="best" departSpeed="5.00" from="E0" to="E1"/>
    <trip id="bus98" type="bus98" depart="180.32" departLane="best" departSpeed="5.00" from="E0" to="E1"/>
    <trip id="bus99" type="bus99" depart="182.16" departLane="best" departSpeed="5.00" from="E0" to="E1"/>
    <trip id="bus100" type="bus100" depart="184.00" departLane="best" departSpeed="5.00" from="E0" to="E1"/>
    <trip id="bus101" type="bus101" depart="185.84" departLane="best" departSpeed="5.00" from="E0" to="E1"/>
    <trip id="bus102" type="bus102" depart="187.68" departLane="best" departSpeed="5.00" from="E0" to="E1"/>
    <trip id="bus103" type="bus103" depart="189.52" departLane="best" departSpeed="5.00" from="E0" to="E1"/>
    <trip id="bus104" type="bus104" depart="191.36" departLane="best" departSpeed="5.00" from="E0" to="E1"/>
    <trip id="bus105" type="bus105" depart="193.20" departLane="best" departSpeed="5.00" from="E0" to="E1"/>
    <trip id="bus106" type="bus106" depart="195.04" departLane="best" departSpeed="5.00" from="E0" to="E1"/>
    <trip id="bus107" type="bus107" depart="196.88" departLane="best" departSpeed="5.00" from="E0" to="E1"/>
    <trip id="bus108" type="bus108" depart="198.72" departLane="best" departSpeed="5.00" from="E0" to="E1"/>
    <trip id="bus109" type="bus109" depart="200.56" departLane="best" departSpeed="5.00" from="E0" to="E1"/>
    <trip id="bus110" type="bus110" depart="202.40" departLane="best" departSpeed="5.00" from="E0" to="E1"/>
    <trip id="bus111" type="bus111" depart="204.24" departLane="best" departSpeed="5.00" from="E0" to="E1"/>
    <trip id="bus112" type="bus112" depart="206.08" departLane="best" departSpeed="5.00" from="E0" to="E1"/>
    <trip id="bus113" type="bus113" depart="207.92" departLane="best" departSpeed="5.00" from="E0" to="E1"/>
    <trip id="bus114" type="bus114" depart="209.76" departLane="best" departSpeed="5.00" from="E0" to="E1"/>
    <trip id="bus115" type="bus115" depart="211.60" departLane="best" departSpeed="5.00" from="E0" to="E1"/>
    <trip id="bus116" type="bus116" depart="213.44" departLane="best" departSpeed="5.00" from="E0" to="E1"/>
    <trip id="bus117" type="bus117" depart="215.28" departLane="best" departSpeed="5.00" from="E0" to="E1"/>
    <trip id="bus118" type="bus118" depart="217.12" departLane="best" departSpeed="5.00" from="E0" to="E1"/>
    <trip id="bus119" type="bus119" depart="218.96" departLane="best" departSpeed="5.00" from="E0" to="E1"/>
    <trip id="bus120" type="bus120" depart="220.80" departLane="best" departSpeed="5.00" from="E0" to="E1"/>
    <trip id="bus121" type="bus121" depart="222.64" departLane="best" departSpeed="5.00" from="E0" to="E1"/>
    <trip id="bus122" type="bus122" depart="224.48" departLane="best" departSpeed="5.00" from="E0" to="E1"/>
    <trip id="bus123" type="bus123" depart="226.32" departLane="best" departSpeed="5.00" from="E0" to="E1"/>
    <trip id="bus124" type="bus124" depart="228.16" departLane="best" departSpeed="5.00" from="E0" to="E1"/>
    <trip id="bus125" type="bus125" depart="230.00" departLane="best" departSpeed="5.00" from="E0" to="E1"/>
    <trip id="bus126" type="bus126" depart="231.84" departLane="best" departSpeed="5.00" from="E0" to="E1"/>
    <trip id="bus127" type="bus127" depart="233.68" departLane="best" departSpeed="5.00" from="E0" to="E1"/>
    <trip id="bus128" type="bus128" depart="235.52" departLane="best" departSpeed="5.00" from="E0" to="E1"/>
    <trip id="bus129" type="bus129" depart="237.36" departLane="best" departSpeed="5.00" from="E0" to="E1"/>
    <trip id="bus130" type="bus130" depart="239.20" departLane="best" departSpeed="5.00" from="E0" to="E1"/>
    <trip id="bus131" type="bus131" depart="241.04" departLane="best" departSpeed="5.00" from="E0" to="E1"/>
    <trip id="bus132" type="bus132" depart="242.88" departLane="best" departSpeed="5.00" from="E0" to="E1"/>
    <trip id="bus133" type="bus133" depart="244.72" departLane="best" departSpeed="5.00" from="E0" to="E1"/>
    <trip id="bus134" type="bus134" depart="246.56" departLane="best" departSpeed="5.00" from="E0" to="E1"/>
    <trip id="bus135" type="bus135" depart="248.40" departLane="best" departSpeed="5.00" from="E0" to="E1"/>
    <trip id="bus136" type="bus136" depart="250.24" departLane="best" departSpeed="5.00" from="E0" to="E1"/>
    <trip id="bus137" type="bus137" depart="252.08" departLane="best" departSpeed="5.00" from="E0" to="E1"/>
    <trip id="bus138" type="bus138" depart="253.92" departLane="best" departSpeed="5.00" from="E0" to="E1"/>
    <trip id="bus139" type="bus139" depart="255.76" departLane="best" departSpeed="5.00" from="E0" to="E1"/>
    <trip id="bus140" type="bus140" depart="257.60" departLane="best" departSpeed="5.00" from="E0" to="E1"/>
    <trip id="bus141" type="bus141" depart="259.44" departLane="best" departSpeed="5.00" from="E0" to="E1"/>
    <trip id="bus142" type="bus142" depart="261.28" departLane="best" departSpeed="5.00" from="E0" to="E1"/>
    <trip id="bus143" type="bus143" depart="263.12" departLane="best" departSpeed="5.00" from="E0" to="E1"/>
    <trip id="bus144" type="bus144" depart="264.96" departLane="best" departSpeed="5.00" from="E0" to="E1"/>
    <trip id="bus145" type="bus145" depart="266.80" departLane="best" departSpeed="5.00" from="E0" to="E1"/>
    <trip id="bus146" type="bus146" depart="268.64" departLane="best" departSpeed="5.00" from="E0" to="E1"/>
    <trip id="bus147" type="bus147" depart="270.48" departLane="best" departSpeed="5.00" from="E0" to="E1"/>
    <trip id="bus148" type="bus148" depart="272.32" departLane="best" departSpeed="5.00" from="E0" to="E1"/>
    <trip id="bus149" type="bus149" depart="274.16" departLane="best" departSpeed="5.00" from="E0" to="E1"/>
    <trip id="bus150" type="bus150" depart="276.00" departLane="best" departSpeed="5.00" from="E0" to="E1"/>
    <trip id="bus151" type="bus151" depart="277.84" departLane="best" departSpeed="5.00" from="E0" to="E1"/>
    <trip id="bus152" type="bus152" depart="279.68" departLane="best" departSpeed="5.00" from="E0" to="E1"/>
    <trip id="bus153" type="bus153" depart="281.52" departLane="best" departSpeed="5.00" from="E0" to="E1"/>
    <trip id="bus154" type="bus154" depart="283.36" departLane="best" departSpeed="5.00" from="E0" to="E1"/>
    <trip id="bus155" type="bus155" depart="285.20" departLane="best" departSpeed="5.00" from="E0" to="E1"/>
    <trip id="bus156" type="bus156" depart="287.04" departLane="best" departSpeed="5.00" from="E0" to="E1"/>
    <trip id="bus157" type="bus157" depart="288.88" departLane="best" departSpeed="5.00" from="E0" to="E1"/>
    <trip id="bus158" type="bus158" depart="290.72" departLane="best" departSpeed="5.00" from="E0" to="E1"/>
    <trip id="bus159" type="bus159" depart="292.56" departLane="best" departSpeed="5.00" from="E0" to="E1"/>
    <trip id="bus160" type="bus160" depart="294.40" departLane="best" departSpeed="5.00" from="E0" to="E1"/>
    <trip id="bus161" type="bus161" depart="296.24" departLane="best" departSpeed="5.00" from="E0" to="E1"/>
    <trip id="bus162" type="bus162" depart="298.08" departLane="best" departSpeed="5.00" from="E0" to="E1"/>
    <trip id="bus163" type="bus163" depart="299.92" departLane="best" departSpeed="5.00" from="E0" to="E1"/>
    <trip id="bus164" type="bus164" depart="301.76" departLane="best" departSpeed="5.00" from="E0" to="E1"/>
    <trip id="bus165" type="bus165" depart="303.60" departLane="best" departSpeed="5.00" from="E0" to="E1"/>
    <trip id="bus166" type="bus166" depart="305.44" departLane="best" departSpeed="5.00" from="E0" to="E1"/>
    <trip id="bus167" type="bus167" depart="307.28" departLane="best" departSpeed="5.00" from="E0" to="E1"/>
    <trip id="bus168" type="bus168" depart="309.12" departLane="best" departSpeed="5.00" from="E0" to="E1"/>
    <trip id="bus169" type="bus169" depart="310.96" departLane="best" departSpeed="5.00" from="E0" to="E1"/>
    <trip id="bus170" type="bus170" depart="312.80" departLane="best" departSpeed="5.00" from="E0" to="E1"/>
    <trip id="bus171" type="bus171" depart="314.64" departLane="best" departSpeed="5.00" from="E0" to="E1"/>
    <trip id="bus172" type="bus172" depart="316.48" departLane="best" departSpeed="5.00" from="E0" to="E1"/>
    <trip id="bus173" type="bus173" depart="318.32" departLane="best" departSpeed="5.00" from="E0" to="E1"/>
    <trip id="bus174" type="bus174" depart="320.16" departLane="best" departSpeed="5.00" from="E0" to="E1"/>
    <trip id="bus175" type="bus175" depart="322.00" departLane="best" departSpeed="5.00" from="E0" to="E1"/>
    <trip id="bus176" type="bus176" depart="323.84" departLane="best" departSpeed="5.00" from="E0" to="E1"/>
    <trip id="bus177" type="bus177" depart="325.68" departLane="best" departSpeed="5.00" from="E0" to="E1"/>
    <trip id="bus178" type="bus178" depart="327.52" departLane="best" departSpeed="5.00" from="E0" to="E1"/>
    <trip id="bus179" type="bus179" depart="329.36" departLane="best" departSpeed="5.00" from="E0" to="E1"/>
    <trip id="bus180" type="bus180" depart="331.20" departLane="best" departSpeed="5.00" from="E0" to="E1"/>
    <trip id="bus181" type="bus181" depart="333.04" departLane="best" departSpeed="5.00" from="E0" to="E1"/>
    <trip id="bus182" type="bus182" depart="334.88" departLane="best" departSpeed="5.00" from="E0" to="E1"/>
    <trip id="bus183" type="bus183" depart="336.72" departLane="best" departSpeed="5.00" from="E0" to="E1"/>
    <trip id="bus184" type="bus184" depart="338.56" departLane="best" departSpeed="5.00" from="E0" to="E1"/>
    <trip id="bus185" type="bus185" depart="340.40" departLane="best" departSpeed="5.00" from="E0" to="E1"/>
    <trip id="bus186" type="bus186" depart="342.24" departLane="best" departSpeed="5.00" from="E0" to="E1"/>
    <trip id="bus187" type="bus187" depart="344.08" departLane="best" departSpeed="5.00" from="E0" to="E1"/>
    <trip id="bus188" type="bus188" depart="345.92" departLane="best" departSpeed="5.00" from="E0" to="E1"/>
    <trip id="bus189" type="bus189" depart="347.76" departLane="best" departSpeed="5.00" from="E0" to="E1"/>
    <trip id="bus190" type="bus190" depart="349.60" departLane="best" departSpeed="5.00" from="E0" to="E1"/>
    <trip id="bus191" type="bus191" depart="351.44" departLane="best" departSpeed="5.00" from="E0" to="E1"/>
    <trip id="bus192" type="bus192" depart="353.28" departLane="best" departSpeed="5.00" from="E0" to="E1"/>
    <trip id="bus193" type="bus193" depart="355.12" departLane="best" departSpeed="5.00" from="E0" to="E1"/>
    <trip id="bus194" type="bus194" depart="356.96" departLane="best" departSpeed="5.00" from="E0" to="E1"/>
    <trip id="bus195" type="bus195" depart="358.80" departLane="best" departSpeed="5.00" from="E0" to="E1"/>
    <trip id="bus196" type="bus196" depart="360.64" departLane="best" departSpeed="5.00" from="E0" to="E1"/>
    <trip id="bus197" type="bus197" depart="362.48" departLane="best" departSpeed="5.00" from="E0" to="E1"/>
    <trip id="bus198" type="bus198" depart="364.32" departLane="best" departSpeed="5.00" from="E0" to="E1"/>
    <trip id="bus199" type="bus199" depart="366.16" departLane="best" departSpeed="5.00" from="E0" to="E1"/>
    <trip id="bus200" type="bus200" depart="368.00" departLane="best" departSpeed="5.00" from="E0" to="E1"/>
    <trip id="bus201" type="bus201" depart="369.84" departLane="best" departSpeed="5.00" from="E0" to="E1"/>
    <trip id="bus202" type="bus202" depart="371.68" departLane="best" departSpeed="5.00" from="E0" to="E1"/>
    <trip id="bus203" type="bus203" depart="373.52" departLane="best" departSpeed="5.00" from="E0" to="E1"/>
    <trip id="bus204" type="bus204" depart="375.36" departLane="best" departSpeed="5.00" from="E0" to="E1"/>
    <trip id="bus205" type="bus205" depart="377.20" departLane="best" departSpeed="5.00" from="E0" to="E1"/>
    <trip id="bus206" type="bus206" depart="379.04" departLane="best" departSpeed="5.00" from="E0" to="E1"/>
    <trip id="bus207" type="bus207" depart="380.88" departLane="best" departSpeed="5.00" from="E0" to="E1"/>
    <trip id="bus208" type="bus208" depart="382.72" departLane="best" departSpeed="5.00" from="E0" to="E1"/>
    <trip id="bus209" type="bus209" depart="384.56" departLane="best" departSpeed="5.00" from="E0" to="E1"/>
    <trip id="bus210" type="bus210" depart="386.40" departLane="best" departSpeed="5.00" from="E0" to="E1"/>
    <trip id="bus211" type="bus211" depart="388.24" departLane="best" departSpeed="5.00" from="E0" to="E1"/>
    <trip id="bus212" type="bus212" depart="390.08" departLane="best" departSpeed="5.00" from="E0" to="E1"/>
    <trip id="bus213" type="bus213" depart="391.92" departLane="best" departSpeed="5.00" from="E0" to="E1"/>
    <trip id="bus214" type="bus214" depart="393.76" departLane="best" departSpeed="5.00" from="E0" to="E1"/>
    <trip id="bus215" type="bus215" depart="395.60" departLane="best" departSpeed="5.00" from="E0" to="E1"/>
    <trip id="bus216" type="bus216" depart="397.44" departLane="best" departSpeed="5.00" from="E0" to="E1"/>
    <trip id="bus217" type="bus217" depart="399.28" departLane="best" departSpeed="5.00" from="E0" to="E1"/>
    <trip id="bus218" type="bus218" depart="401.12" departLane="best" departSpeed="5.00" from="E0" to="E1"/>
    <trip id="bus219" type="bus219" depart="402.96" departLane="best" departSpeed="5.00" from="E0" to="E1"/>
    <trip id="bus220" type="bus220" depart="404.80" departLane="best" departSpeed="5.00" from="E0" to="E1"/>
    <trip id="bus221" type="bus221" depart="406.64" departLane="best" departSpeed="5.00" from="E0" to="E1"/>
    <trip id="bus222" type="bus222" depart="408.48" departLane="best" departSpeed="5.00" from="E0" to="E1"/>
    <trip id="bus223" type="bus223" depart="410.32" departLane="best" departSpeed="5.00" from="E0" to="E1"/>
    <trip id="bus224" type="bus224" depart="412.16" departLane="best" departSpeed="5.00" from="E0" to="E1"/>
    <trip id="bus225" type="bus225" depart="414.00" departLane="best" departSpeed="5.00" from="E0" to="E1"/>
    <trip id="bus226" type="bus226" depart="415.84" departLane="best" departSpeed="5.00" from="E0" to="E1"/>
    <trip id="bus227" type="bus227" depart="417.68" departLane="best" departSpeed="5.00" from="E0" to="E1"/>
    <trip id="bus228" type="bus228" depart="419.52" departLane="best" departSpeed="5.00" from="E0" to="E1"/>
    <trip id="bus229" type="bus229" depart="421.36" departLane="best" departSpeed="5.00" from="E0" to="E1"/>
    <trip id="bus230" type="bus230" depart="423.20" departLane="best" departSpeed="5.00" from="E0" to="E1"/>
    <trip id="bus231" type="bus231" depart="425.04" departLane="best" departSpeed="5.00" from="E0" to="E1"/>
    <trip id="bus232" type="bus232" depart="426.88" departLane="best" departSpeed="5.00" from="E0" to="E1"/>
    <trip id="bus233" type="bus233" depart="428.72" departLane="best" departSpeed="5.00" from="E0" to="E1"/>
    <trip id="bus234" type="bus234" depart="430.56" departLane="best" departSpeed="5.00" from="E0" to="E1"/>
    <trip id="bus235" type="bus235" depart="432.40" departLane="best" departSpeed="5.00" from="E0" to="E1"/>
    <trip id="bus236" type="bus236" depart="434.24" departLane="best" departSpeed="5.00" from="E0" to="E1"/>
    <trip id="bus237" type="bus237" depart="436.08" departLane="best" departSpeed="5.00" from="E0" to="E1"/>
    <trip id="bus238" type="bus238" depart="437.92" departLane="best" departSpeed="5.00" from="E0" to="E1"/>
    <trip id="bus239" type="bus239" depart="439.76" departLane="best" departSpeed="5.00" from="E0" to="E1"/>
    <trip id="bus240" type="bus240" depart="441.60" departLane="best" departSpeed="5.00" from="E0" to="E1"/>
    <trip id="bus241" type="bus241" depart="443.44" departLane="best" departSpeed="5.00" from="E0" to="E1"/>
    <trip id="bus242" type="bus242" depart="445.28" departLane="best" departSpeed="5.00" from="E0" to="E1"/>
    <trip id="bus243" type="bus243" depart="447.12" departLane="best" departSpeed="5.00" from="E0" to="E1"/>
    <trip id="bus244" type="bus244" depart="448.96" departLane="best" departSpeed="5.00" from="E0" to="E1"/>
    <trip id="bus245" type="bus245" depart="450.80" departLane="best" departSpeed="5.00" from="E0" to="E1"/>
    <trip id="bus246" type="bus246" depart="452.64" departLane="best" departSpeed="5.00" from="E0" to="E1"/>
    <trip id="bus247" type="bus247" depart="454.48" departLane="best" departSpeed="5.00" from="E0" to="E1"/>
    <trip id="bus248" type="bus248" depart="456.32" departLane="best" departSpeed="5.00" from="E0" to="E1"/>
    <trip id="bus249" type="bus249" depart="458.16" departLane="best" departSpeed="5.00" from="E0" to="E1"/>
    <trip id="bus250" type="bus250" depart="460.00" departLane="best" departSpeed="5.00" from="E0" to="E1"/>
    <trip id="bus251" type="bus251" depart="461.84" departLane="best" departSpeed="5.00" from="E0" to="E1"/>
    <trip id="bus252" type="bus252" depart="463.68" departLane="best" departSpeed="5.00" from="E0" to="E1"/>
    <trip id="bus253" type="bus253" depart="465.52" departLane="best" departSpeed="5.00" from="E0" to="E1"/>
    <trip id="bus254" type="bus254" depart="467.36" departLane="best" departSpeed="5.00" from="E0" to="E1"/>
    <trip id="bus255" type="bus255" depart="469.20" departLane="best" departSpeed="5.00" from="E0" to="E1"/>
    <trip id="bus256" type="bus256" depart="471.04" departLane="best" departSpeed="5.00" from="E0" to="E1"/>
    <trip id="bus257" type="bus257" depart="472.88" departLane="best" departSpeed="5.00" from="E0" to="E1"/>
    <trip id="bus258" type="bus258" depart="474.72" departLane="best" departSpeed="5.00" from="E0" to="E1"/>
    <trip id="bus259" type="bus259" depart="476.56" departLane="best" departSpeed="5.00" from="E0" to="E1"/>
    <trip id="bus260" type="bus260" depart="478.40" departLane="best" departSpeed="5.00" from="E0" to="E1"/>
    <trip id="bus261" type="bus261" depart="480.24" departLane="best" departSpeed="5.00" from="E0" to="E1"/>
    <trip id="bus262" type="bus262" depart="482.08" departLane="best" departSpeed="5.00" from="E0" to="E1"/>
    <trip id="bus263" type="bus263" depart="483.92" departLane="best" departSpeed="5.00" from="E0" to="E1"/>