<?xml version="1.0" encoding="UTF-8"?>

<!-- generated on 2024-08-13 09:40:35.465391 by randomTrips.py UNKNOWN
<configuration>
    <net-file value="highway.net.xml"/>
    <output-trip-file value="car.trips.xml"/>
    <route-file value="output.trips1.xml"/>
    <prefix value="car"/>
    <trip-attributes value="departLane=&quot;best&quot; departSpeed=&quot;5&quot;  "/>
    <lanes value="True"/>
    <fringe-factor value="100000"/>
    <seed value="70"/>
    <min-distance value="10.0"/>
    <max-distance value="500000.0"/>
    <validate value="True"/>
    <end value="754.0"/>
    <period value="0.528"/>
    <random-depart value="True"/>
</configuration>
-->

<!-- generated on 2024-08-13 09:40:35 by Eclipse SUMO duarouter Version 1.20.0
<configuration xmlns:xsi="http://www.w3.org/2001/XMLSchema-instance" xsi:noNamespaceSchemaLocation="http://sumo.dlr.de/xsd/duarouterConfiguration.xsd">

    <input>
        <net-file value="highway.net.xml"/>
        <route-files value="car.trips.xml"/>
    </input>

    <output>
        <output-file value="car.trips.xml.tmp"/>
        <alternatives-output value="NUL"/>
        <write-trips value="true"/>
    </output>

    <time>
        <begin value="0"/>
        <end value="754.0"/>
    </time>

    <report>
        <no-warnings value="true"/>
        <ignore-errors value="true"/>
        <no-step-log value="true"/>
    </report>

</configuration>
-->

<routes xmlns:xsi="http://www.w3.org/2001/XMLSchema-instance" xsi:noNamespaceSchemaLocation="http://sumo.dlr.de/xsd/routes_file.xsd">
    <trip id="car0" type="car0" depart="0.27" departLane="best" departSpeed="5.00" from="E0" to="E1"/>
    <trip id="car1" type="car1" depart="0.67" departLane="best" departSpeed="5.00" from="E0" to="E1"/>
    <trip id="car2" type="car2" depart="1.13" departLane="best" departSpeed="5.00" from="E0" to="E1"/>
    <trip id="car3" type="car3" depart="1.16" departLane="best" departSpeed="5.00" from="E0" to="E1"/>
    <trip id="car4" type="car4" depart="1.27" departLane="best" departSpeed="5.00" from="E0" to="E1"/>
    <trip id="car5" type="car5" depart="1.40" departLane="best" departSpeed="5.00" from="E0" to="E1"/>
    <trip id="car6" type="car6" depart="3.57" departLane="best" departSpeed="5.00" from="E0" to="E1"/>
    <trip id="car7" type="car7" depart="3.60" departLane="best" departSpeed="5.00" from="E0" to="E1"/>
    <trip id="car8" type="car8" depart="4.55" departLane="best" departSpeed="5.00" from="E0" to="E1"/>
    <trip id="car9" type="car9" depart="4.85" departLane="best" departSpeed="5.00" from="E0" to="E1"/>
    <trip id="car10" type="car10" depart="5.14" departLane="best" departSpeed="5.00" from="E0" to="E1"/>
    <trip id="car11" type="car11" depart="5.42" departLane="best" departSpeed="5.00" from="E0" to="E1"/>
    <trip id="car12" type="car12" depart="7.58" departLane="best" departSpeed="5.00" from="E0" to="E1"/>
    <trip id="car13" type="car13" depart="7.66" departLane="best" departSpeed="5.00" from="E0" to="E1"/>
    <trip id="car14" type="car14" depart="7.88" departLane="best" departSpeed="5.00" from="E0" to="E1"/>
    <trip id="car15" type="car15" depart="8.02" departLane="best" departSpeed="5.00" from="E0" to="E1"/>
    <trip id="car16" type="car16" depart="8.29" departLane="best" departSpeed="5.00" from="E0" to="E1"/>
    <trip id="car17" type="car17" depart="8.83" departLane="best" departSpeed="5.00" from="E0" to="E1"/>
    <trip id="car18" type="car18" depart="9.78" departLane="best" departSpeed="5.00" from="E0" to="E1"/>
    <trip id="car19" type="car19" depart="10.75" departLane="best" departSpeed="5.00" from="E0" to="E1"/>
    <trip id="car20" type="car20" depart="11.91" departLane="best" departSpeed="5.00" from="E0" to="E1"/>
    <trip id="car21" type="car21" depart="12.26" departLane="best" departSpeed="5.00" from="E0" to="E1"/>
    <trip id="car22" type="car22" depart="12.46" departLane="best" departSpeed="5.00" from="E0" to="E1"/>
    <trip id="car23" type="car23" depart="13.05" departLane="best" departSpeed="5.00" from="E0" to="E1"/>
    <trip id="car24" type="car24" depart="14.77" departLane="best" departSpeed="5.00" from="E0" to="E1"/>
    <trip id="car25" type="car25" depart="15.37" departLane="best" departSpeed="5.00" from="E0" to="E1"/>
    <trip id="car26" type="car26" depart="15.94" departLane="best" departSpeed="5.00" from="E0" to="E1"/>
    <trip id="car27" type="car27" depart="16.33" departLane="best" departSpeed="5.00" from="E0" to="E1"/>
    <trip id="car28" type="car28" depart="16.43" departLane="best" departSpeed="5.00" from="E0" to="E1"/>
    <trip id="car29" type="car29" depart="16.69" departLane="best" departSpeed="5.00" from="E0" to="E1"/>
    <trip id="car30" type="car30" depart="17.98" departLane="best" departSpeed="5.00" from="E0" to="E1"/>
    <trip id="car31" type="car31" depart="18.88" departLane="best" departSpeed="5.00" from="E0" to="E1"/>
    <trip id="car32" type="car32" depart="19.66" departLane="best" departSpeed="5.00" from="E0" to="E1"/>
    <trip id="car33" type="car33" depart="20.09" departLane="best" departSpeed="5.00" from="E0" to="E1"/>
    <trip id="car34" type="car34" depart="21.41" departLane="best" departSpeed="5.00" from="E0" to="E1"/>
    <trip id="car35" type="car35" depart="21.54" departLane="best" departSpeed="5.00" from="E0" to="E1"/>
    <trip id="car36" type="car36" depart="22.46" departLane="best" departSpeed="5.00" from="E0" to="E1"/>
    <trip id="car37" type="car37" depart="23.72" departLane="best" departSpeed="5.00" from="E0" to="E1"/>
    <trip id="car38" type="car38" depart="23.83" departLane="best" departSpeed="5.00" from="E0" to="E1"/>
    <trip id="car39" type="car39" depart="24.16" departLane="best" departSpeed="5.00" from="E0" to="E1"/>
    <trip id="car40" type="car40" depart="24.97" departLane="best" departSpeed="5.00" from="E0" to="E1"/>
    <trip id="car41" type="car41" depart="26.02" departLane="best" departSpeed="5.00" from="E0" to="E1"/>
    <trip id="car42" type="car42" depart="26.61" departLane="best" departSpeed="5.00" from="E0" to="E1"/>
    <trip id="car43" type="car43" depart="26.74" departLane="best" departSpeed="5.00" from="E0" to="E1"/>
    <trip id="car44" type="car44" depart="27.26" departLane="best" departSpeed="5.00" from="E0" to="E1"/>
    <trip id="car45" type="car45" depart="28.17" departLane="best" departSpeed="5.00" from="E0" to="E1"/>
    <trip id="car46" type="car46" depart="29.33" departLane="best" departSpeed="5.00" from="E0" to="E1"/>
    <trip id="car47" type="car47" depart="29.52" departLane="best" departSpeed="5.00" from="E0" to="E1"/>
    <trip id="car48" type="car48" depart="30.02" departLane="best" departSpeed="5.00" from="E0" to="E1"/>
    <trip id="car49" type="car49" depart="30.71" departLane="best" departSpeed="5.00" from="E0" to="E1"/>
    <trip id="car50" type="car50" depart="31.61" departLane="best" departSpeed="5.00" from="E0" to="E1"/>
    <trip id="car51" type="car51" depart="31.87" departLane="best" departSpeed="5.00" from="E0" to="E1"/>
    <trip id="car52" type="car52" depart="31.97" departLane="best" departSpeed="5.00" from="E0" to="E1"/>
    <trip id="car53" type="car53" depart="32.06" departLane="best" departSpeed="5.00" from="E0" to="E1"/>
    <trip id="car54" type="car54" depart="32.71" departLane="best" departSpeed="5.00" from="E0" to="E1"/>
    <trip id="car55" type="car55" depart="32.78" departLane="best" departSpeed="5.00" from="E0" to="E1"/>
    <trip id="car56" type="car56" depart="32.80" departLane="best" departSpeed="5.00" from="E0" to="E1"/>
    <trip id="car57" type="car57" depart="32.94" departLane="best" departSpeed="5.00" from="E0" to="E1"/>
    <trip id="car58" type="car58" depart="33.07" departLane="best" departSpeed="5.00" from="E0" to="E1"/>
    <trip id="car59" type="car59" depart="33.14" departLane="best" departSpeed="5.00" from="E0" to="E1"/>
    <trip id="car60" type="car60" depart="33.85" departLane="best" departSpeed="5.00" from="E0" to="E1"/>
    <trip id="car61" type="car61" depart="34.11" departLane="best" departSpeed="5.00" from="E0" to="E1"/>
    <trip id="car62" type="car62" depart="34.36" departLane="best" departSpeed="5.00" from="E0" to="E1"/>
    <trip id="car63" type="car63" depart="34.63" departLane="best" departSpeed="5.00" from="E0" to="E1"/>
    <trip id="car64" type="car64" depart="34.70" departLane="best" departSpeed="5.00" from="E0" to="E1"/>
    <trip id="car65" type="car65" depart="35.50" departLane="best" departSpeed="5.00" from="E0" to="E1"/>
    <trip id="car66" type="car66" depart="36.12" departLane="best" departSpeed="5.00" from="E0" to="E1"/>
    <trip id="car67" type="car67" depart="36.13" departLane="best" departSpeed="5.00" from="E0" to="E1"/>
    <trip id="car68" type="car68" depart="36.14" departLane="best" departSpeed="5.00" from="E0" to="E1"/>
    <trip id="car69" type="car69" depart="36.37" departLane="best" departSpeed="5.00" from="E0" to="E1"/>
    <trip id="car70" type="car70" depart="36.94" departLane="best" departSpeed="5.00" from="E0" to="E1"/>
    <trip id="car71" type="car71" depart="36.97" departLane="best" departSpeed="5.00" from="E0" to="E1"/>
    <trip id="car72" type="car72" depart="37.06" departLane="best" departSpeed="5.00" from="E0" to="E1"/>
    <trip id="car73" type="car73" depart="37.50" departLane="best" departSpeed="5.00" from="E0" to="E1"/>
    <trip id="car74" type="car74" depart="38.23" departLane="best" departSpeed="5.00" from="E0" to="E1"/>
    <trip id="car75" type="car75" depart="40.22" departLane="best" departSpeed="5.00" from="E0" to="E1"/>
    <trip id="car76" type="car76" depart="41.70" departLane="best" departSpeed="5.00" from="E0" to="E1"/>
    <trip id="car77" type="car77" depart="42.71" departLane="best" departSpeed="5.00" from="E0" to="E1"/>
    <trip id="car78" type="car78" depart="42.87" departLane="best" departSpeed="5.00" from="E0" to="E1"/>
    <trip id="car79" type="car79" depart="43.06" departLane="best" departSpeed="5.00" from="E0" to="E1"/>
    <trip id="car80" type="car80" depart="43.18" departLane="best" departSpeed="5.00" from="E0" to="E1"/>
    <trip id="car81" type="car81" depart="43.44" departLane="best" departSpeed="5.00" from="E0" to="E1"/>
    <trip id="car82" type="car82" depart="43.74" departLane="best" departSpeed="5.00" from="E0" to="E1"/>
    <trip id="car83" type="car83" depart="43.80" departLane="best" departSpeed="5.00" from="E0" to="E1"/>
    <trip id="car84" type="car84" depart="44.93" departLane="best" departSpeed="5.00" from="E0" to="E1"/>
    <trip id="car85" type="car85" depart="46.01" departLane="best" departSpeed="5.00" from="E0" to="E1"/>
    <trip id="car86" type="car86" depart="46.06" departLane="best" departSpeed="5.00" from="E0" to="E1"/>
    <trip id="car87" type="car87" depart="47.50" departLane="best" departSpeed="5.00" from="E0" to="E1"/>
    <trip id="car88" type="car88" depart="47.54" departLane="best" departSpeed="5.00" from="E0" to="E1"/>
    <trip id="car89" type="car89" depart="49.02" departLane="best" departSpeed="5.00" from="E0" to="E1"/>
    <trip id="car90" type="car90" depart="49.22" departLane="best" departSpeed="5.00" from="E0" to="E1"/>
    <trip id="car91" type="car91" depart="49.64" departLane="best" departSpeed="5.00" from="E0" to="E1"/>
    <trip id="car92" type="car92" depart="50.37" departLane="best" departSpeed="5.00" from="E0" to="E1"/>
    <trip id="car93" type="car93" depart="51.02" departLane="best" departSpeed="5.00" from="E0" to="E1"/>
    <trip id="car94" type="car94" depart="51.10" departLane="best" departSpeed="5.00" from="E0" to="E1"/>
    <trip id="car95" type="car95" depart="51.10" departLane="best" departSpeed="5.00" from="E0" to="E1"/>
    <trip id="car96" type="car96" depart="51.32" departLane="best" departSpeed="5.00" from="E0" to="E1"/>
    <trip id="car97" type="car97" depart="53.30" departLane="best" departSpeed="5.00" from="E0" to="E1"/>
    <trip id="car98" type="car98" depart="53.44" departLane="best" departSpeed="5.00" from="E0" to="E1"/>
    <trip id="car99" type="car99" depart="53.60" departLane="best" departSpeed="5.00" from="E0" to="E1"/>
    <trip id="car100" type="car100" depart="53.80" departLane="best" departSpeed="5.00" from="E0" to="E1"/>
    <trip id="car101" type="car101" depart="53.89" departLane="best" departSpeed="5.00" from="E0" to="E1"/>
    <trip id="car102" type="car102" depart="54.37" departLane="best" departSpeed="5.00" from="E0" to="E1"/>
    <trip id="car103" type="car103" depart="54.41" departLane="best" departSpeed="5.00" from="E0" to="E1"/>
    <trip id="car104" type="car104" depart="54.45" departLane="best" departSpeed="5.00" from="E0" to="E1"/>
    <trip id="car105" type="car105" depart="54.58" departLane="best" departSpeed="5.00" from="E0" to="E1"/>
    <trip id="car106" type="car106" depart="55.01" departLane="best" departSpeed="5.00" from="E0" to="E1"/>
    <trip id="car107" type="car107" depart="55.34" departLane="best" departSpeed="5.00" from="E0" to="E1"/>
    <trip id="car108" type="car108" depart="56.23" departLane="best" departSpeed="5.00" from="E0" to="E1"/>
    <trip id="car109" type="car109" depart="56.33" departLane="best" departSpeed="5.00" from="E0" to="E1"/>
    <trip id="car110" type="car110" depart="56.71" departLane="best" departSpeed="5.00" from="E0" to="E1"/>
    <trip id="car111" type="car111" depart="56.95" departLane="best" departSpeed="5.00" from="E0" to="E1"/>
    <trip id="car112" type="car112" depart="57.27" departLane="best" departSpeed="5.00" from="E0" to="E1"/>
    <trip id="car113" type="car113" depart="58.25" departLane="best" departSpeed="5.00" from="E0" to="E1"/>
    <trip id="car114" type="car114" depart="59.14" departLane="best" departSpeed="5.00" from="E0" to="E1"/>
    <trip id="car115" type="car115" depart="59.50" departLane="best" departSpeed="5.00" from="E0" to="E1"/>
    <trip id="car116" type="car116" depart="59.59" departLane="best" departSpeed="5.00" from="E0" to="E1"/>
    <trip id="car117" type="car117" depart="59.62" departLane="best" departSpeed="5.00" from="E0" to="E1"/>
    <trip id="car118" type="car118" depart="59.74" departLane="best" departSpeed="5.00" from="E0" to="E1"/>
    <trip id="car119" type="car119" depart="59.77" departLane="best" departSpeed="5.00" from="E0" to="E1"/>
    <trip id="car120" type="car120" depart="60.09" departLane="best" departSpeed="5.00" from="E0" to="E1"/>
    <trip id="car121" type="car121" depart="61.00" departLane="best" departSpeed="5.00" from="E0" to="E1"/>
    <trip id="car122" type="car122" depart="61.36" departLane="best" departSpeed="5.00" from="E0" to="E1"/>
    <trip id="car123" type="car123" depart="61.48" departLane="best" departSpeed="5.00" from="E0" to="E1"/>
    <trip id="car124" type="car124" depart="61.77" departLane="best" departSpeed="5.00" from="E0" to="E1"/>
    <trip id="car125" type="car125" depart="62.02" departLane="best" departSpeed="5.00" from="E0" to="E1"/>
    <trip id="car126" type="car126" depart="62.07" departLane="best" departSpeed="5.00" from="E0" to="E1"/>
    <trip id="car127" type="car127" depart="62.42" departLane="best" departSpeed="5.00" from="E0" to="E1"/>
    <trip id="car128" type="car128" depart="62.71" departLane="best" departSpeed="5.00" from="E0" to="E1"/>
    <trip id="car129" type="car129" depart="62.82" departLane="best" departSpeed="5.00" from="E0" to="E1"/>
    <trip id="car130" type="car130" depart="62.90" departLane="best" departSpeed="5.00" from="E0" to="E1"/>
    <trip id="car131" type="car131" depart="63.68" departLane="best" departSpeed="5.00" from="E0" to="E1"/>
    <trip id="car132" type="car132" depart="63.72" departLane="best" departSpeed="5.00" from="E0" to="E1"/>
    <trip id="car133" type="car133" depart="64.14" departLane="best" departSpeed="5.00" from="E0" to="E1"/>
    <trip id="car134" type="car134" depart="64.66" departLane="best" departSpeed="5.00" from="E0" to="E1"/>
    <trip id="car135" type="car135" depart="65.62" departLane="best" departSpeed="5.00" from="E0" to="E1"/>
    <trip id="car136" type="car136" depart="66.63" departLane="best" departSpeed="5.00" from="E0" to="E1"/>
    <trip id="car137" type="car137" depart="66.67" departLane="best" departSpeed="5.00" from="E0" to="E1"/>
    <trip id="car138" type="car138" depart="67.38" departLane="best" departSpeed="5.00" from="E0" to="E1"/>
    <trip id="car139" type="car139" depart="67.56" departLane="best" departSpeed="5.00" from="E0" to="E1"/>
    <trip id="car140" type="car140" depart="67.76" departLane="best" departSpeed="5.00" from="E0" to="E1"/>
    <trip id="car141" type="car141" depart="67.96" departLane="best" departSpeed="5.00" from="E0" to="E1"/>
    <trip id="car142" type="car142" depart="68.27" departLane="best" departSpeed="5.00" from="E0" to="E1"/>
    <trip id="car143" type="car143" depart="70.38" departLane="best" departSpeed="5.00" from="E0" to="E1"/>
    <trip id="car144" type="car144" depart="70.46" departLane="best" departSpeed="5.00" from="E0" to="E1"/>
    <trip id="car145" type="car145" depart="70.67" departLane="best" departSpeed="5.00" from="E0" to="E1"/>
    <trip id="car146" type="car146" depart="71.26" departLane="best" departSpeed="5.00" from="E0" to="E1"/>
    <trip id="car147" type="car147" depart="71.68" departLane="best" departSpeed="5.00" from="E0" to="E1"/>
    <trip id="car148" type="car148" depart="72.15" departLane="best" departSpeed="5.00" from="E0" to="E1"/>
    <trip id="car149" type="car149" depart="72.48" departLane="best" departSpeed="5.00" from="E0" to="E1"/>
    <trip id="car150" type="car150" depart="72.87" departLane="best" departSpeed="5.00" from="E0" to="E1"/>
    <trip id="car151" type="car151" depart="73.46" departLane="best" departSpeed="5.00" from="E0" to="E1"/>
    <trip id="car152" type="car152" depart="73.68" departLane="best" departSpeed="5.00" from="E0" to="E1"/>
    <trip id="car153" type="car153" depart="73.82" departLane="best" departSpeed="5.00" from="E0" to="E1"/>
    <trip id="car154" type="car154" depart="74.45" departLane="best" departSpeed="5.00" from="E0" to="E1"/>
    <trip id="car155" type="car155" depart="74.46" departLane="best" departSpeed="5.00" from="E0" to="E1"/>
    <trip id="car156" type="car156" depart="74.90" departLane="best" departSpeed="5.00" from="E0" to="E1"/>
    <trip id="car157" type="car157" depart="75.23" departLane="best" departSpeed="5.00" from="E0" to="E1"/>
    <trip id="car158" type="car158" depart="75.89" departLane="best" departSpeed="5.00" from="E0" to="E1"/>
    <trip id="car159" type="car159" depart="77.22" departLane="best" departSpeed="5.00" from="E0" to="E1"/>
    <trip id="car160" type="car160" depart="77.27" departLane="best" departSpeed="5.00" from="E0" to="E1"/>
    <trip id="car161" type="car161" depart="77.53" departLane="best" departSpeed="5.00" from="E0" to="E1"/>
    <trip id="car162" type="car162" depart="77.89" departLane="best" departSpeed="5.00" from="E0" to="E1"/>
    <trip id="car163" type="car163" depart="78.55" departLane="best" departSpeed="5.00" from="E0" to="E1"/>
    <trip id="car164" type="car164" depart="79.05" departLane="best" departSpeed="5.00" from="E0" to="E1"/>
    <trip id="car165" type="car165" depart="79.76" departLane="best" departSpeed="5.00" from="E0" to="E1"/>
    <trip id="car166" type="car166" depart="79.82" departLane="best" departSpeed="5.00" from="E0" to="E1"/>
    <trip id="car167" type="car167" depart="79.87" departLane="best" departSpeed="5.00" from="E0" to="E1"/>
    <trip id="car168" type="car168" depart="80.15" departLane="best" departSpeed="5.00" from="E0" to="E1"/>
    <trip id="car169" type="car169" depart="81.27" departLane="best" departSpeed="5.00" from="E0" to="E1"/>
    <trip id="car170" type="car170" depart="81.28" departLane="best" departSpeed="5.00" from="E0" to="E1"/>
    <trip id="car171" type="car171" depart="81.78" departLane="best" departSpeed="5.00" from="E0" to="E1"/>
    <trip id="car172" type="car172" depart="82.48" departLane="best" departSpeed="5.00" from="E0" to="E1"/>
    <trip id="car173" type="car173" depart="82.97" departLane="best" departSpeed="5.00" from="E0" to="E1"/>
    <trip id="car174" type="car174" depart="84.47" departLane="best" departSpeed="5.00" from="E0" to="E1"/>
    <trip id="car175" type="car175" depart="84.59" departLane="best" departSpeed="5.00" from="E0" to="E1"/>
    <trip id="car176" type="car176" depart="84.64" departLane="best" departSpeed="5.00" from="E0" to="E1"/>
    <trip id="car177" type="car177" depart="85.28" departLane="best" departSpeed="5.00" from="E0" to="E1"/>
    <trip id="car178" type="car178" depart="85.28" departLane="best" departSpeed="5.00" from="E0" to="E1"/>
    <trip id="car179" type="car179" depart="86.02" departLane="best" departSpeed="5.00" from="E0" to="E1"/>
    <trip id="car180" type="car180" depart="86.11" departLane="best" departSpeed="5.00" from="E0" to="E1"/>
    <trip id="car181" type="car181" depart="86.40" departLane="best" departSpeed="5.00" from="E0" to="E1"/>
    <trip id="car182" type="car182" depart="87.62" departLane="best" departSpeed="5.00" from="E0" to="E1"/>
    <trip id="car183" type="car183" depart="87.88" departLane="best" departSpeed="5.00" from="E0" to="E1"/>
    <trip id="car184" type="car184" depart="88.07" departLane="best" departSpeed="5.00" from="E0" to="E1"/>
    <trip id="car185" type="car185" depart="88.30" departLane="best" departSpeed="5.00" from="E0" to="E1"/>
    <trip id="car186" type="car186" depart="89.05" departLane="best" departSpeed="5.00" from="E0" to="E1"/>
    <trip id="car187" type="car187" depart="89.07" departLane="best" departSpeed="5.00" from="E0" to="E1"/>
    <trip id="car188" type="car188" depart="89.63" departLane="best" departSpeed="5.00" from="E0" to="E1"/>
    <trip id="car189" type="car189" depart="90.13" departLane="best" departSpeed="5.00" from="E0" to="E1"/>
    <trip id="car190" type="car190" depart="90.22" departLane="best" departSpeed="5.00" from="E0" to="E1"/>
    <trip id="car191" type="car191" depart="90.29" departLane="best" departSpeed="5.00" from="E0" to="E1"/>
    <trip id="car192" type="car192" depart="90.54" departLane="best" departSpeed="5.00" from="E0" to="E1"/>
    <trip id="car193" type="car193" depart="90.74" departLane="best" departSpeed="5.00" from="E0" to="E1"/>
    <trip id="car194" type="car194" depart="90.94" departLane="best" departSpeed="5.00" from="E0" to="E1"/>
    <trip id="car195" type="car195" depart="91.03" departLane="best" departSpeed="5.00" from="E0" to="E1"/>
    <trip id="car196" type="car196" depart="91.42" departLane="best" departSpeed="5.00" from="E0" to="E1"/>
    <trip id="car197" type="car197" depart="91.63" departLane="best" departSpeed="5.00" from="E0" to="E1"/>
    <trip id="car198" type="car198" depart="91.87" departLane="best" departSpeed="5.00" from="E0" to="E1"/>
    <trip id="car199" type="car199" depart="92.05" departLane="best" departSpeed="5.00" from="E0" to="E1"/>
    <trip id="car200" type="car200" depart="93.21" departLane="best" departSpeed="5.00" from="E0" to="E1"/>
    <trip id="car201" type="car201" depart="93.30" departLane="best" departSpeed="5.00" from="E0" to="E1"/>
    <trip id="car202" type="car202" depart="93.72" departLane="best" departSpeed="5.00" from="E0" to="E1"/>
    <trip id="car203" type="car203" depart="94.10" departLane="best" departSpeed="5.00" from="E0" to="E1"/>
    <trip id="car204" type="car204" depart="95.58" departLane="best" departSpeed="5.00" from="E0" to="E1"/>
    <trip id="car205" type="car205" depart="96.80" departLane="best" departSpeed="5.00" from="E0" to="E1"/>
    <trip id="car206" type="car206" depart="97.66" departLane="best" departSpeed="5.00" from="E0" to="E1"/>
    <trip id="car207" type="car207" depart="97.82" departLane="best" departSpeed="5.00" from="E0" to="E1"/>
    <trip id="car208" type="car208" depart="98.04" departLane="best" departSpeed="5.00" from="E0" to="E1"/>
    <trip id="car209" type="car209" depart="98.16" departLane="best" departSpeed="5.00" from="E0" to="E1"/>
    <trip id="car210" type="car210" depart="98.24" departLane="best" departSpeed="5.00" from="E0" to="E1"/>
    <trip id="car211" type="car211" depart="99.18" departLane="best" departSpeed="5.00" from="E0" to="E1"/>
    <trip id="car212" type="car212" depart="99.53" departLane="best" departSpeed="5.00" from="E0" to="E1"/>
    <trip id="car213" type="car213" depart="100.36" departLane="best" departSpeed="5.00" from="E0" to="E1"/>
    <trip id="car214" type="car214" depart="100.50" departLane="best" departSpeed="5.00" from="E0" to="E1"/>
    <trip id="car215" type="car215" depart="102.33" departLane="best" departSpeed="5.00" from="E0" to="E1"/>
    <trip id="car216" type="car216" depart="102.87" departLane="best" departSpeed="5.00" from="E0" to="E1"/>
    <trip id="car217" type="car217" depart="103.31" departLane="best" departSpeed="5.00" from="E0" to="E1"/>
    <trip id="car218" type="car218" depart="104.58" departLane="best" departSpeed="5.00" from="E0" to="E1"/>
    <trip id="car219" type="car219" depart="105.29" departLane="best" departSpeed="5.00" from="E0" to="E1"/>
    <trip id="car220" type="car220" depart="105.35" departLane="best" departSpeed="5.00" from="E0" to="E1"/>
    <trip id="car221" type="car221" depart="105.74" departLane="best" departSpeed="5.00" from="E0" to="E1"/>
    <trip id="car222" type="car222" depart="106.03" departLane="best" departSpeed="5.00" from="E0" to="E1"/>
    <trip id="car223" type="car223" depart="106.51" departLane="best" departSpeed="5.00" from="E0" to="E1"/>
    <trip id="car224" type="car224" depart="107.13" departLane="best" departSpeed="5.00" from="E0" to="E1"/>
    <trip id="car225" type="car225" depart="107.17" departLane="best" departSpeed="5.00" from="E0" to="E1"/>
    <trip id="car226" type="car226" depart="107.31" departLane="best" departSpeed="5.00" from="E0" to="E1"/>
    <trip id="car227" type="car227" depart="108.31" departLane="best" departSpeed="5.00" from="E0" to="E1"/>
    <trip id="car228" type="car228" depart="108.65" departLane="best" departSpeed="5.00" from="E0" to="E1"/>
    <trip id="car229" type="car229" depart="108.69" departLane="best" departSpeed="5.00" from="E0" to="E1"/>
    <trip id="car230" type="car230" depart="108.75" departLane="best" departSpeed="5.00" from="E0" to="E1"/>
    <trip id="car231" type="car231" depart="109.61" departLane="best" departSpeed="5.00" from="E0" to="E1"/>
    <trip id="car232" type="car232" depart="110.61" departLane="best" departSpeed="5.00" from="E0" to="E1"/>
    <trip id="car233" type="car233" depart="110.85" departLane="best" departSpeed="5.00" from="E0" to="E1"/>
    <trip id="car234" type="car234" depart="110.96" departLane="best" departSpeed="5.00" from="E0" to="E1"/>
    <trip id="car235" type="car235" depart="111.03" departLane="best" departSpeed="5.00" from="E0" to="E1"/>
    <trip id="car236" type="car236" depart="111.07" departLane="best" departSpeed="5.00" from="E0" to="E1"/>
    <trip id="car237" type="car237" depart="111.43" departLane="best" departSpeed="5.00" from="E0" to="E1"/>
    <trip id="car238" type="car238" depart="111.86" departLane="best" departSpeed="5.00" from="E0" to="E1"/>
    <trip id="car239" type="car239" depart="112.34" departLane="best" departSpeed="5.00" from="E0" to="E1"/>
    <trip id="car240" type="car240" depart="113.08" departLane="best" departSpeed="5.00" from="E0" to="E1"/>
    <trip id="car241" type="car241" depart="113.31" departLane="best" departSpeed="5.00" from="E0" to="E1"/>
    <trip id="car242" type="car242" depart="114.72" departLane="best" departSpeed="5.00" from="E0" to="E1"/>
    <trip id="car243" type="car243" depart="115.86" departLane="best" departSpeed="5.00" from="E0" to="E1"/>
    <trip id="car244" type="car244" depart="115.94" departLane="best" departSpeed="5.00" from="E0" to="E1"/>
    <trip id="car245" type="car245" depart="116.03" departLane="best" departSpeed="5.00" from="E0" to="E1"/>
    <trip id="car246" type="car246" depart="116.42" departLane="best" departSpeed="5.00" from="E0" to="E1"/>
    <trip id="car247" type="car247" depart="116.50" departLane="best" departSpeed="5.00" from="E0" to="E1"/>
    <trip id="car248" type="car248" depart="117.31" departLane="best" departSpeed="5.00" from="E0" to="E1"/>
    <trip id="car249" type="car249" depart="117.93" departLane="best" departSpeed="5.00" from="E0" to="E1"/>
    <trip id="car250" type="car250" depart="118.01" departLane="best" departSpeed="5.00" from="E0" to="E1"/>
    <trip id="car251" type="car251" depart="118.05" departLane="best" departSpeed="5.00" from="E0" to="E1"/>
    <trip id="car252" type="car252" depart="118.89" departLane="best" departSpeed="5.00" from="E0" to="E1"/>
    <trip id="car253" type="car253" depart="120.46" departLane="best" departSpeed="5.00" from="E0" to="E1"/>
    <trip id="car254" type="car254" depart="120.92" departLane="best" departSpeed="5.00" from="E0" to="E1"/>
    <trip id="car255" type="car255" depart="121.01" departLane="best" departSpeed="5.00" from="E0" to="E1"/>
    <trip id="car256" type="car256" depart="121.22" departLane="best" departSpeed="5.00" from="E0" to="E1"/>
    <trip id="car257" type="car257" depart="121.77" departLane="best" departSpeed="5.00" from="E0" to="E1"/>
    <trip id="car258" type="car258" depart="121.93" departLane="best" departSpeed="5.00" from="E0" to="E1"/>
    <trip id="car259" type="car259" depart="122.00" departLane="best" departSpeed="5.00" from="E0" to="E1"/>
    <trip id="car260" type="car260" depart="122.14" departLane="best" departSpeed="5.00" from="E0" to="E1"/>
    <trip id="car261" type="car261" depart="122.77" departLane="best" departSpeed="5.00" from="E0" to="E1"/>
    <trip id="car262" type="car262" depart="123.06" departLane="best" departSpeed="5.00" from="E0" to="E1"/>
    <trip id="car263" type="car263" depart="123.28" departLane="best" departSpeed="5.00" from="E0" to="E1"/>
    <trip id="car264" type="car264" depart="123.34" departLane="best" departSpeed="5.00" from="E0" to="E1"/>