<?xml version="1.0" ?>
<additional xmlns:xsi="http://www.w3.org/2001/XMLSchema-instance" xsi:noNamespaceSchemaLocation="http://sumo.dlr.de/xsd/additional_file.xsd">
	<vTypeDistribution id="car">
		<vType id="car0" vClass="passenger"/>
		<vType id="car1" vClass="passenger"/>
		<vType id="car2" vClass="passenger"/>
		<vType id="car3" vClass="passenger"/>
		<vType id="car4" vClass="passenger"/>
		<vType id="car5" vClass="passenger"/>
		<vType id="car6" vClass="passenger"/>
		<vType id="car7" vClass="passenger"/>
		<vType id="car8" vClass="passenger"/>
		<vType id="car9" vClass="passenger"/>
		<vType id="car10" vClass="passenger"/>
		<vType id="car11" vClass="passenger"/>
		<vType id="car12" vClass="passenger"/>
		<vType id="car13" vClass="passenger"/>
		<vType id="car14" vClass="passenger"/>
		<vType id="car15" vClass="passenger"/>
		<vType id="car16" vClass="passenger"/>
		<vType id="car17" vClass="passenger"/>
		<vType id="car18" vClass="passenger"/>
		<vType id="car19" vClass="passenger"/>
		<vType id="car20" vClass="passenger"/>
		<vType id="car21" vClass="passenger"/>
		<vType id="car22" vClass="passenger"/>
		<vType id="car23" vClass="passenger"/>
		<vType id="car24" vClass="passenger"/>
		<vType id="car25" vClass="passenger"/>
		<vType id="car26" vClass="passenger"/>
		<vType id="car27" vClass="passenger"/>
		<vType id="car28" vClass="passenger"/>
		<vType id="car29" vClass="passenger"/>
		<vType id="car30" vClass="passenger"/>
		<vType id="car31" vClass="passenger"/>
		<vType id="car32" vClass="passenger"/>
		<vType id="car33" vClass="passenger"/>
		<vType id="car34" vClass="passenger"/>
		<vType id="car35" vClass="passenger"/>
		<vType id="car36" vClass="passenger"/>
		<vType id="car37" vClass="passenger"/>
		<vType id="car38" vClass="passenger"/>
		<vType id="car39" vClass="passenger"/>
		<vType id="car40" vClass="passenger"/>
		<vType id="car41" vClass="passenger"/>
		<vType id="car42" vClass="passenger"/>
		<vType id="car43" vClass="passenger"/>
		<vType id="car44" vClass="passenger"/>
		<vType id="car45" vClass="passenger"/>
		<vType id="car46" vClass="passenger"/>
		<vType id="car47" vClass="passenger"/>
		<vType id="car48" vClass="passenger"/>
		<vType id="car49" vClass="passenger"/>
		<vType id="car50" vClass="passenger"/>
		<vType id="car51" vClass="passenger"/>
		<vType id="car52" vClass="passenger"/>
		<vType id="car53" vClass="passenger"/>
		<vType id="car54" vClass="passenger"/>
		<vType id="car55" vClass="passenger"/>
		<vType id="car56" vClass="passenger"/>
		<vType id="car57" vClass="passenger"/>
		<vType id="car58" vClass="passenger"/>
		<vType id="car59" vClass="passenger"/>
		<vType id="car60" vClass="passenger"/>
		<vType id="car61" vClass="passenger"/>
		<vType id="car62" vClass="passenger"/>
		<vType id="car63" vClass="passenger"/>
		<vType id="car64" vClass="passenger"/>
		<vType id="car65" vClass="passenger"/>
		<vType id="car66" vClass="passenger"/>
		<vType id="car67" vClass="passenger"/>
		<vType id="car68" vClass="passenger"/>
		<vType id="car69" vClass="passenger"/>
		<vType id="car70" vClass="passenger"/>
		<vType id="car71" vClass="passenger"/>
		<vType id="car72" vClass="passenger"/>
		<vType id="car73" vClass="passenger"/>
		<vType id="car74" vClass="passenger"/>
		<vType id="car75" vClass="passenger"/>
		<vType id="car76" vClass="passenger"/>
		<vType id="car77" vClass="passenger"/>
		<vType id="car78" vClass="passenger"/>
		<vType id="car79" vClass="passenger"/>
		<vType id="car80" vClass="passenger"/>
		<vType id="car81" vClass="passenger"/>
		<vType id="car82" vClass="passenger"/>
		<vType id="car83" vClass="passenger"/>
		<vType id="car84" vClass="passenger"/>
		<vType id="car85" vClass="passenger"/>
		<vType id="car86" vClass="passenger"/>
		<vType id="car87" vClass="passenger"/>
		<vType id="car88" vClass="passenger"/>
		<vType id="car89" vClass="passenger"/>
		<vType id="car90" vClass="passenger"/>
		<vType id="car91" vClass="passenger"/>
		<vType id="car92" vClass="passenger"/>
		<vType id="car93" vClass="passenger"/>
		<vType id="car94" vClass="passenger"/>
		<vType id="car95" vClass="passenger"/>
		<vType id="car96" vClass="passenger"/>
		<vType id="car97" vClass="passenger"/>
		<vType id="car98" vClass="passenger"/>
		<vType id="car99" vClass="passenger"/>
		<vType id="car100" vClass="passenger"/>
		<vType id="car101" vClass="passenger"/>
		<vType id="car102" vClass="passenger"/>
		<vType id="car103" vClass="passenger"/>
		<vType id="car104" vClass="passenger"/>
		<vType id="car105" vClass="passenger"/>
		<vType id="car106" vClass="passenger"/>
		<vType id="car107" vClass="passenger"/>
		<vType id="car108" vClass="passenger"/>
		<vType id="car109" vClass="passenger"/>
		<vType id="car110" vClass="passenger"/>
		<vType id="car111" vClass="passenger"/>
		<vType id="car112" vClass="passenger"/>
		<vType id="car113" vClass="passenger"/>
		<vType id="car114" vClass="passenger"/>
		<vType id="car115" vClass="passenger"/>
		<vType id="car116" vClass="passenger"/>
		<vType id="car117" vClass="passenger"/>
		<vType id="car118" vClass="passenger"/>
		<vType id="car119" vClass="passenger"/>
		<vType id="car120" vClass="passenger"/>
		<vType id="car121" vClass="passenger"/>
		<vType id="car122" vClass="passenger"/>
		<vType id="car123" vClass="passenger"/>
		<vType id="car124" vClass="passenger"/>
		<vType id="car125" vClass="passenger"/>
		<vType id="car126" vClass="passenger"/>
		<vType id="car127" vClass="passenger"/>
		<vType id="car128" vClass="passenger"/>
		<vType id="car129" vClass="passenger"/>
		<vType id="car130" vClass="passenger"/>
		<vType id="car131" vClass="passenger"/>
		<vType id="car132" vClass="passenger"/>
		<vType id="car133" vClass="passenger"/>
		<vType id="car134" vClass="passenger"/>
		<vType id="car135" vClass="passenger"/>
		<vType id="car136" vClass="passenger"/>
		<vType id="car137" vClass="passenger"/>
		<vType id="car138" vClass="passenger"/>
		<vType id="car139" vClass="passenger"/>
		<vType id="car140" vClass="passenger"/>
		<vType id="car141" vClass="passenger"/>
		<vType id="car142" vClass="passenger"/>
		<vType id="car143" vClass="passenger"/>
		<vType id="car144" vClass="passenger"/>
		<vType id="car145" vClass="passenger"/>
		<vType id="car146" vClass="passenger"/>
		<vType id="car147" vClass="passenger"/>
		<vType id="car148" vClass="passenger"/>
		<vType id="car149" vClass="passenger"/>
		<vType id="car150" vClass="passenger"/>
		<vType id="car151" vClass="passenger"/>
		<vType id="car152" vClass="passenger"/>
		<vType id="car153" vClass="passenger"/>
		<vType id="car154" vClass="passenger"/>
		<vType id="car155" vClass="passenger"/>
		<vType id="car156" vClass="passenger"/>
		<vType id="car157" vClass="passenger"/>
		<vType id="car158" vClass="passenger"/>
		<vType id="car159" vClass="passenger"/>
		<vType id="car160" vClass="passenger"/>
		<vType id="car161" vClass="passenger"/>
		<vType id="car162" vClass="passenger"/>
		<vType id="car163" vClass="passenger"/>
		<vType id="car164" vClass="passenger"/>
		<vType id="car165" vClass="passenger"/>
		<vType id="car166" vClass="passenger"/>
		<vType id="car167" vClass="passenger"/>
		<vType id="car168" vClass="passenger"/>
		<vType id="car169" vClass="passenger"/>
		<vType id="car170" vClass="passenger"/>
		<vType id="car171" vClass="passenger"/>
		<vType id="car172" vClass="passenger"/>
		<vType id="car173" vClass="passenger"/>
		<vType id="car174" vClass="passenger"/>
		<vType id="car175" vClass="passenger"/>
		<vType id="car176" vClass="passenger"/>
		<vType id="car177" vClass="passenger"/>
		<vType id="car178" vClass="passenger"/>
		<vType id="car179" vClass="passenger"/>
		<vType id="car180" vClass="passenger"/>
		<vType id="car181" vClass="passenger"/>
		<vType id="car182" vClass="passenger"/>
		<vType id="car183" vClass="passenger"/>
		<vType id="car184" vClass="passenger"/>
		<vType id="car185" vClass="passenger"/>
		<vType id="car186" vClass="passenger"/>
		<vType id="car187" vClass="passenger"/>
		<vType id="car188" vClass="passenger"/>
		<vType id="car189" vClass="passenger"/>
		<vType id="car190" vClass="passenger"/>
		<vType id="car191" vClass="passenger"/>
		<vType id="car192" vClass="passenger"/>
		<vType id="car193" vClass="passenger"/>
		<vType id="car194" vClass="passenger"/>
		<vType id="car195" vClass="passenger"/>
		<vType id="car196" vClass="passenger"/>
		<vType id="car197" vClass="passenger"/>
		<vType id="car198" vClass="passenger"/>
		<vType id="car199" vClass="passenger"/>
		<vType id="car200" vClass="passenger"/>
		<vType id="car201" vClass="passenger"/>
		<vType id="car202" vClass="passenger"/>
		<vType id="car203" vClass="passenger"/>
		<vType id="car204" vClass="passenger"/>
		<vType id="car205" vClass="passenger"/>
		<vType id="car206" vClass="passenger"/>
		<vType id="car207" vClass="passenger"/>
		<vType id="car208" vClass="passenger"/>
		<vType id="car209" vClass="passenger"/>
		<vType id="car210" vClass="passenger"/>
		<vType id="car211" vClass="passenger"/>
		<vType id="car212" vClass="passenger"/>
		<vType id="car213" vClass="passenger"/>
		<vType id="car214" vClass="passenger"/>
		<vType id="car215" vClass="passenger"/>
		<vType id="car216" vClass="passenger"/>
		<vType id="car217" vClass="passenger"/>
		<vType id="car218" vClass="passenger"/>
		<vType id="car219" vClass="passenger"/>
		<vType id="car220" vClass="passenger"/>
		<vType id="car221" vClass="passenger"/>
		<vType id="car222" vClass="passenger"/>
		<vType id="car223" vClass="passenger"/>
		<vType id="car224" vClass="passenger"/>
		<vType id="car225" vClass="passenger"/>
		<vType id="car226" vClass="passenger"/>
		<vType id="car227" vClass="passenger"/>
		<vType id="car228" vClass="passenger"/>
		<vType id="car229" vClass="passenger"/>
		<vType id="car230" vClass="passenger"/>
		<vType id="car231" vClass="passenger"/>
		<vType id="car232" vClass="passenger"/>
		<vType id="car233" vClass="passenger"/>
		<vType id="car234" vClass="passenger"/>
		<vType id="car235" vClass="passenger"/>
		<vType id="car236" vClass="passenger"/>
		<vType id="car237" vClass="passenger"/>
		<vType id="car238" vClass="passenger"/>
		<vType id="car239" vClass="passenger"/>
		<vType id="car240" vClass="passenger"/>
		<vType id="car241" vClass="passenger"/>
		<vType id="car242" vClass="passenger"/>
		<vType id="car243" vClass="passenger"/>
		<vType id="car244" vClass="passenger"/>
		<vType id="car245" vClass="passenger"/>
		<vType id="car246" vClass="passenger"/>
		<vType id="car247" vClass="passenger"/>
		<vType id="car248" vClass="passenger"/>
		<vType id="car249" vClass="passenger"/>
		<vType id="car250" vClass="passenger"/>
		<vType id="car251" vClass="passenger"/>
		<vType id="car252" vClass="passenger"/>
		<vType id="car253" vClass="passenger"/>
		<vType id="car254" vClass="passenger"/>
		<vType id="car255" vClass="passenger"/>
		<vType id="car256" vClass="passenger"/>
		<vType id="car257" vClass="passenger"/>
		<vType id="car258" vClass="passenger"/>
		<vType id="car259" vClass="passenger"/>
		<vType id="car260" vClass="passenger"/>
		<vType id="car261" vClass="passenger"/>
		<vType id="car262" vClass="passenger"/>
		<vType id="car263" vClass="passenger"/>
		<vType id="car264" vClass="passenger"/>
		<vType id="car265" vClass="passenger"/>
		<vType id="car266" vClass="passenger"/>
		<vType id="car267" vClass="passenger"/>
		<vType id="car268" vClass="passenger"/>
		<vType id="car269" vClass="passenger"/>
		<vType id="car270" vClass="passenger"/>
		<vType id="car271" vClass="passenger"/>
		<vType id="car272" vClass="passenger"/>
		<vType id="car273" vClass="passenger"/>
		<vType id="car274" vClass="passenger"/>
		<vType id="car275" vClass="passenger"/>
		<vType id="car276" vClass="passenger"/>
		<vType id="car277" vClass="passenger"/>
		<vType id="car278" vClass="passenger"/>
		<vType id="car279" vClass="passenger"/>
		<vType id="car280" vClass="passenger"/>
		<vType id="car281" vClass="passenger"/>
		<vType id="car282" vClass="passenger"/>
		<vType id="car283" vClass="passenger"/>
		<vType id="car284" vClass="passenger"/>
		<vType id="car285" vClass="passenger"/>
		<vType id="car286" vClass="passenger"/>
		<vType id="car287" vClass="passenger"/>
		<vType id="car288" vClass="passenger"/>
		<vType id="car289" vClass="passenger"/>
		<vType id="car290" vClass="passenger"/>
		<vType id="car291" vClass="passenger"/>
		<vType id="car292" vClass="passenger"/>
		<vType id="car293" vClass="passenger"/>
		<vType id="car294" vClass="passenger"/>
		<vType id="car295" vClass="passenger"/>
		<vType id="car296" vClass="passenger"/>
		<vType id="car297" vClass="passenger"/>
		<vType id="car298" vClass="passenger"/>
		<vType id="car299" vClass="passenger"/>
		<vType id="car300" vClass="passenger"/>
		<vType id="car301" vClass="passenger"/>
		<vType id="car302" vClass="passenger"/>
		<vType id="car303" vClass="passenger"/>
		<vType id="car304" vClass="passenger"/>
		<vType id="car305" vClass="passenger"/>
		<vType id="car306" vClass="passenger"/>
		<vType id="car307" vClass="passenger"/>
		<vType id="car308" vClass="passenger"/>
		<vType id="car309" vClass="passenger"/>
		<vType id="car310" vClass="passenger"/>
		<vType id="car311" vClass="passenger"/>
		<vType id="car312" vClass="passenger"/>
		<vType id="car313" vClass="passenger"/>
		<vType id="car314" vClass="passenger"/>
		<vType id="car315" vClass="passenger"/>
		<vType id="car316" vClass="passenger"/>
		<vType id="car317" vClass="passenger"/>
		<vType id="car318" vClass="passenger"/>
		<vType id="car319" vClass="passenger"/>
		<vType id="car320" vClass="passenger"/>
		<vType id="car321" vClass="passenger"/>
		<vType id="car322" vClass="passenger"/>
		<vType id="car323" vClass="passenger"/>
		<vType id="car324" vClass="passenger"/>
		<vType id="car325" vClass="passenger"/>
		<vType id="car326" vClass="passenger"/>
		<vType id="car327" vClass="passenger"/>
		<vType id="car328" vClass="passenger"/>
		<vType id="car329" vClass="passenger"/>
		<vType id="car330" vClass="passenger"/>
		<vType id="car331" vClass="passenger"/>
		<vType id="car332" vClass="passenger"/>
		<vType id="car333" vClass="passenger"/>
		<vType id="car334" vClass="passenger"/>
		<vType id="car335" vClass="passenger"/>
		<vType id="car336" vClass="passenger"/>
		<vType id="car337" vClass="passenger"/>
		<vType id="car338" vClass="passenger"/>
		<vType id="car339" vClass="passenger"/>
		<vType id="car340" vClass="passenger"/>
		<vType id="car341" vClass="passenger"/>
		<vType id="car342" vClass="passenger"/>
		<vType id="car343" vClass="passenger"/>
		<vType id="car344" vClass="passenger"/>
		<vType id="car345" vClass="passenger"/>
		<vType id="car346" vClass="passenger"/>
		<vType id="car347" vClass="passenger"/>
		<vType id="car348" vClass="passenger"/>
		<vType id="car349" vClass="passenger"/>
		<vType id="car350" vClass="passenger"/>
		<vType id="car351" vClass="passenger"/>
		<vType id="car352" vClass="passenger"/>
		<vType id="car353" vClass="passenger"/>
		<vType id="car354" vClass="passenger"/>
		<vType id="car355" vClass="passenger"/>
		<vType id="car356" vClass="passenger"/>
		<vType id="car357" vClass="passenger"/>
		<vType id="car358" vClass="passenger"/>
		<vType id="car359" vClass="passenger"/>
		<vType id="car360" vClass="passenger"/>
		<vType id="car361" vClass="passenger"/>
		<vType id="car362" vClass="passenger"/>
		<vType id="car363" vClass="passenger"/>
		<vType id="car364" vClass="passenger"/>
		<vType id="car365" vClass="passenger"/>
		<vType id="car366" vClass="passenger"/>
		<vType id="car367" vClass="passenger"/>
		<vType id="car368" vClass="passenger"/>
		<vType id="car369" vClass="passenger"/>
		<vType id="car370" vClass="passenger"/>
		<vType id="car371" vClass="passenger"/>
		<vType id="car372" vClass="passenger"/>
		<vType id="car373" vClass="passenger"/>
		<vType id="car374" vClass="passenger"/>
		<vType id="car375" vClass="passenger"/>
		<vType id="car376" vClass="passenger"/>
		<vType id="car377" vClass="passenger"/>
		<vType id="car378" vClass="passenger"/>
		<vType id="car379" vClass="passenger"/>
		<vType id="car380" vClass="passenger"/>
		<vType id="car381" vClass="passenger"/>
		<vType id="car382" vClass="passenger"/>
		<vType id="car383" vClass="passenger"/>
		<vType id="car384" vClass="passenger"/>
		<vType id="car385" vClass="passenger"/>
		<vType id="car386" vClass="passenger"/>
		<vType id="car387" vClass="passenger"/>
		<vType id="car388" vClass="passenger"/>
		<vType id="car389" vClass="passenger"/>
		<vType id="car390" vClass="passenger"/>
		<vType id="car391" vClass="passenger"/>
		<vType id="car392" vClass="passenger"/>
		<vType id="car393" vClass="passenger"/>
		<vType id="car394" vClass="passenger"/>
		<vType id="car395" vClass="passenger"/>
		<vType id="car396" vClass="passenger"/>
		<vType id="car397" vClass="passenger"/>
		<vType id="car398" vClass="passenger"/>
		<vType id="car399" vClass="passenger"/>
		<vType id="car400" vClass="passenger"/>
		<vType id="car401" vClass="passenger"/>
		<vType id="car402" vClass="passenger"/>
		<vType id="car403" vClass="passenger"/>
		<vType id="car404" vClass="passenger"/>
		<vType id="car405" vClass="passenger"/>
		<vType id="car406" vClass="passenger"/>
		<vType id="car407" vClass="passenger"/>
		<vType id="car408" vClass="passenger"/>
		<vType id="car409" vClass="passenger"/>
		<vType id="car410" vClass="passenger"/>
		<vType id="car411" vClass="passenger"/>
		<vType id="car412" vClass="passenger"/>
		<vType id="car413" vClass="passenger"/>
		<vType id="car414" vClass="passenger"/>
		<vType id="car415" vClass="passenger"/>
		<vType id="car416" vClass="passenger"/>
		<vType id="car417" vClass="passenger"/>
		<vType id="car418" vClass="passenger"/>
		<vType id="car419" vClass="passenger"/>
		<vType id="car420" vClass="passenger"/>
		<vType id="car421" vClass="passenger"/>
		<vType id="car422" vClass="passenger"/>
		<vType id="car423" vClass="passenger"/>
		<vType id="car424" vClass="passenger"/>
		<vType id="car425" vClass="passenger"/>
		<vType id="car426" vClass="passenger"/>
		<vType id="car427" vClass="passenger"/>
		<vType id="car428" vClass="passenger"/>
		<vType id="car429" vClass="passenger"/>
		<vType id="car430" vClass="passenger"/>
		<vType id="car431" vClass="passenger"/>
		<vType id="car432" vClass="passenger"/>
		<vType id="car433" vClass="passenger"/>
		<vType id="car434" vClass="passenger"/>
		<vType id="car435" vClass="passenger"/>
		<vType id="car436" vClass="passenger"/>
		<vType id="car437" vClass="passenger"/>
		<vType id="car438" vClass="passenger"/>
		<vType id="car439" vClass="passenger"/>
		<vType id="car440" vClass="passenger"/>
		<vType id="car441" vClass="passenger"/>
		<vType id="car442" vClass="passenger"/>
		<vType id="car443" vClass="passenger"/>
		<vType id="car444" vClass="passenger"/>
		<vType id="car445" vClass="passenger"/>
		<vType id="car446" vClass="passenger"/>
		<vType id="car447" vClass="passenger"/>
		<vType id="car448" vClass="passenger"/>
		<vType id="car449" vClass="passenger"/>
		<vType id="car450" vClass="passenger"/>
		<vType id="car451" vClass="passenger"/>
		<vType id="car452" vClass="passenger"/>
		<vType id="car453" vClass="passenger"/>
		<vType id="car454" vClass="passenger"/>
		<vType id="car455" vClass="passenger"/>
		<vType id="car456" vClass="passenger"/>
		<vType id="car457" vClass="passenger"/>
		<vType id="car458" vClass="passenger"/>
		<vType id="car459" vClass="passenger"/>
		<vType id="car460" vClass="passenger"/>
		<vType id="car461" vClass="passenger"/>
		<vType id="car462" vClass="passenger"/>
		<vType id="car463" vClass="passenger"/>
		<vType id="car464" vClass="passenger"/>
		<vType id="car465" vClass="passenger"/>
		<vType id="car466" vClass="passenger"/>
		<vType id="car467" vClass="passenger"/>
		<vType id="car468" vClass="passenger"/>
		<vType id="car469" vClass="passenger"/>
		<vType id="car470" vClass="passenger"/>
		<vType id="car471" vClass="passenger"/>
		<vType id="car472" vClass="passenger"/>
		<vType id="car473" vClass="passenger"/>
		<vType id="car474" vClass="passenger"/>
		<vType id="car475" vClass="passenger"/>
		<vType id="car476" vClass="passenger"/>
		<vType id="car477" vClass="passenger"/>
		<vType id="car478" vClass="passenger"/>
		<vType id="car479" vClass="passenger"/>
		<vType id="car480" vClass="passenger"/>
		<vType id="car481" vClass="passenger"/>
		<vType id="car482" vClass="passenger"/>
		<vType id="car483" vClass="passenger"/>
		<vType id="car484" vClass="passenger"/>
		<vType id="car485" vClass="passenger"/>
		<vType id="car486" vClass="passenger"/>
		<vType id="car487" vClass="passenger"/>
		<vType id="car488" vClass="passenger"/>
		<vType id="car489" vClass="passenger"/>
		<vType id="car490" vClass="passenger"/>
		<vType id="car491" vClass="passenger"/>
		<vType id="car492" vClass="passenger"/>
		<vType id="car493" vClass="passenger"/>
		<vType id="car494" vClass="passenger"/>
		<vType id="car495" vClass="passenger"/>
		<vType id="car496" vClass="passenger"/>
		<vType id="car497" vClass="passenger"/>
		<vType id="car498" vClass="passenger"/>
		<vType id="car499" vClass="passenger"/>
		<vType id="car500" vClass="passenger"/>
		<vType id="car501" vClass="passenger"/>
		<vType id="car502" vClass="passenger"/>
		<vType id="car503" vClass="passenger"/>
		<vType id="car504" vClass="passenger"/>
		<vType id="car505" vClass="passenger"/>
		<vType id="car506" vClass="passenger"/>
		<vType id="car507" vClass="passenger"/>
		<vType id="car508" vClass="passenger"/>
		<vType id="car509" vClass="passenger"/>
		<vType id="car510" vClass="passenger"/>
		<vType id="car511" vClass="passenger"/>
		<vType id="car512" vClass="passenger"/>
		<vType id="car513" vClass="passenger"/>
		<vType id="car514" vClass="passenger"/>
		<vType id="car515" vClass="passenger"/>
		<vType id="car516" vClass="passenger"/>
		<vType id="car517" vClass="passenger"/>
		<vType id="car518" vClass="passenger"/>
		<vType id="car519" vClass="passenger"/>
		<vType id="car520" vClass="passenger"/>
		<vType id="car521" vClass="passenger"/>
		<vType id="car522" vClass="passenger"/>
		<vType id="car523" vClass="passenger"/>
		<vType id="car524" vClass="passenger"/>
		<vType id="car525" vClass="passenger"/>
		<vType id="car526" vClass="passenger"/>
		<vType id="car527" vClass="passenger"/>
		<vType id="car528" vClass="passenger"/>
		<vType id="car529" vClass="passenger"/>
		<vType id="car530" vClass="passenger"/>
		<vType id="car531" vClass="passenger"/>
		<vType id="car532" vClass="passenger"/>
		<vType id="car533" vClass="passenger"/>
		<vType id="car534" vClass="passenger"/>
		<vType id="car535" vClass="passenger"/>
		<vType id="car536" vClass="passenger"/>
		<vType id="car537" vClass="passenger"/>
		<vType id="car538" vClass="passenger"/>
		<vType id="car539" vClass="passenger"/>
		<vType id="car540" vClass="passenger"/>
		<vType id="car541" vClass="passenger"/>
		<vType id="car542" vClass="passenger"/>
		<vType id="car543" vClass="passenger"/>
		<vType id="car544" vClass="passenger"/>
		<vType id="car545" vClass="passenger"/>
		<vType id="car546" vClass="passenger"/>
		<vType id="car547" vClass="passenger"/>
		<vType id="car548" vClass="passenger"/>
		<vType id="car549" vClass="passenger"/>
		<vType id="car550" vClass="passenger"/>
		<vType id="car551" vClass="passenger"/>
		<vType id="car552" vClass="passenger"/>
		<vType id="car553" vClass="passenger"/>
		<vType id="car554" vClass="passenger"/>
		<vType id="car555" vClass="passenger"/>
		<vType id="car556" vClass="passenger"/>
		<vType id="car557" vClass="passenger"/>
		<vType id="car558" vClass="passenger"/>
		<vType id="car559" vClass="passenger"/>
		<vType id="car560" vClass="passenger"/>
		<vType id="car561" vClass="passenger"/>
		<vType id="car562" vClass="passenger"/>
		<vType id="car563" vClass="passenger"/>
		<vType id="car564" vClass="passenger"/>
		<vType id="car565" vClass="passenger"/>
		<vType id="car566" vClass="passenger"/>
		<vType id="car567" vClass="passenger"/>
		<vType id="car568" vClass="passenger"/>
		<vType id="car569" vClass="passenger"/>
		<vType id="car570" vClass="passenger"/>
		<vType id="car571" vClass="passenger"/>
		<vType id="car572" vClass="passenger"/>
		<vType id="car573" vClass="passenger"/>
		<vType id="car574" vClass="passenger"/>
		<vType id="car575" vClass="passenger"/>
		<vType id="car576" vClass="passenger"/>
		<vType id="car577" vClass="passenger"/>
		<vType id="car578" vClass="passenger"/>
		<vType id="car579" vClass="passenger"/>
		<vType id="car580" vClass="passenger"/>
		<vType id="car581" vClass="passenger"/>
		<vType id="car582" vClass="passenger"/>
		<vType id="car583" vClass="passenger"/>
		<vType id="car584" vClass="passenger"/>
		<vType id="car585" vClass="passenger"/>
		<vType id="car586" vClass="passenger"/>
		<vType id="car587" vClass="passenger"/>
		<vType id="car588" vClass="passenger"/>
		<vType id="car589" vClass="passenger"/>
		<vType id="car590" vClass="passenger"/>
		<vType id="car591" vClass="passenger"/>
		<vType id="car592" vClass="passenger"/>
		<vType id="car593" vClass="passenger"/>
		<vType id="car594" vClass="passenger"/>
		<vType id="car595" vClass="passenger"/>
		<vType id="car596" vClass="passenger"/>
		<vType id="car597" vClass="passenger"/>
		<vType id="car598" vClass="passenger"/>
		<vType id="car599" vClass="passenger"/>
		<vType id="car600" vClass="passenger"/>
		<vType id="car601" vClass="passenger"/>
		<vType id="car602" vClass="passenger"/>
		<vType id="car603" vClass="passenger"/>
		<vType id="car604" vClass="passenger"/>
		<vType id="car605" vClass="passenger"/>
		<vType id="car606" vClass="passenger"/>
		<vType id="car607" vClass="passenger"/>
		<vType id="car608" vClass="passenger"/>
		<vType id="car609" vClass="passenger"/>
		<vType id="car610" vClass="passenger"/>
		<vType id="car611" vClass="passenger"/>
		<vType id="car612" vClass="passenger"/>
		<vType id="car613" vClass="passenger"/>
		<vType id="car614" vClass="passenger"/>
		<vType id="car615" vClass="passenger"/>
		<vType id="car616" vClass="passenger"/>
		<vType id="car617" vClass="passenger"/>
		<vType id="car618" vClass="passenger"/>
		<vType id="car619" vClass="passenger"/>
		<vType id="car620" vClass="passenger"/>
		<vType id="car621" vClass="passenger"/>
		<vType id="car622" vClass="passenger"/>
		<vType id="car623" vClass="passenger"/>
		<vType id="car624" vClass="passenger"/>
		<vType id="car625" vClass="passenger"/>
		<vType id="car626" vClass="passenger"/>
		<vType id="car627" vClass="passenger"/>
		<vType id="car628" vClass="passenger"/>
		<vType id="car629" vClass="passenger"/>
		<vType id="car630" vClass="passenger"/>
		<vType id="car631" vClass="passenger"/>
		<vType id="car632" vClass="passenger"/>
		<vType id="car633" vClass="passenger"/>
		<vType id="car634" vClass="passenger"/>
		<vType id="car635" vClass="passenger"/>
		<vType id="car636" vClass="passenger"/>
		<vType id="car637" vClass="passenger"/>
		<vType id="car638" vClass="passenger"/>
		<vType id="car639" vClass="passenger"/>
		<vType id="car640" vClass="passenger"/>
		<vType id="car641" vClass="passenger"/>
		<vType id="car642" vClass="passenger"/>
		<vType id="car643" vClass="passenger"/>
		<vType id="car644" vClass="passenger"/>
		<vType id="car645" vClass="passenger"/>
		<vType id="car646" vClass="passenger"/>
		<vType id="car647" vClass="passenger"/>
		<vType id="car648" vClass="passenger"/>
		<vType id="car649" vClass="passenger"/>
		<vType id="car650" vClass="passenger"/>
		<vType id="car651" vClass="passenger"/>
		<vType id="car652" vClass="passenger"/>
		<vType id="car653" vClass="passenger"/>
		<vType id="car654" vClass="passenger"/>
		<vType id="car655" vClass="passenger"/>
		<vType id="car656" vClass="passenger"/>
		<vType id="car657" vClass="passenger"/>
		<vType id="car658" vClass="passenger"/>
		<vType id="car659" vClass="passenger"/>
		<vType id="car660" vClass="passenger"/>
		<vType id="car661" vClass="passenger"/>
		<vType id="car662" vClass="passenger"/>
		<vType id="car663" vClass="passenger"/>
		<vType id="car664" vClass="passenger"/>
		<vType id="car665" vClass="passenger"/>
		<vType id="car666" vClass="passenger"/>
		<vType id="car667" vClass="passenger"/>
		<vType id="car668" vClass="passenger"/>
		<vType id="car669" vClass="passenger"/>
		<vType id="car670" vClass="passenger"/>
		<vType id="car671" vClass="passenger"/>
		<vType id="car672" vClass="passenger"/>
		<vType id="car673" vClass="passenger"/>
		<vType id="car674" vClass="passenger"/>
		<vType id="car675" vClass="passenger"/>
		<vType id="car676" vClass="passenger"/>
		<vType id="car677" vClass="passenger"/>
		<vType id="car678" vClass="passenger"/>
		<vType id="car679" vClass="passenger"/>
		<vType id="car680" vClass="passenger"/>
		<vType id="car681" vClass="passenger"/>
		<vType id="car682" vClass="passenger"/>
		<vType id="car683" vClass="passenger"/>
		<vType id="car684" vClass="passenger"/>
		<vType id="car685" vClass="passenger"/>
		<vType id="car686" vClass="passenger"/>
		<vType id="car687" vClass="passenger"/>
		<vType id="car688" vClass="passenger"/>
		<vType id="car689" vClass="passenger"/>
		<vType id="car690" vClass="passenger"/>
		<vType id="car691" vClass="passenger"/>
		<vType id="car692" vClass="passenger"/>
		<vType id="car693" vClass="passenger"/>
		<vType id="car694" vClass="passenger"/>
		<vType id="car695" vClass="passenger"/>
		<vType id="car696" vClass="passenger"/>
		<vType id="car697" vClass="passenger"/>
		<vType id="car698" vClass="passenger"/>
		<vType id="car699" vClass="passenger"/>
		<vType id="car700" vClass="passenger"/>
		<vType id="car701" vClass="passenger"/>
		<vType id="car702" vClass="passenger"/>
		<vType id="car703" vClass="passenger"/>
		<vType id="car704" vClass="passenger"/>
		<vType id="car705" vClass="passenger"/>
		<vType id="car706" vClass="passenger"/>
		<vType id="car707" vClass="passenger"/>
		<vType id="car708" vClass="passenger"/>
		<vType id="car709" vClass="passenger"/>
		<vType id="car710" vClass="passenger"/>
		<vType id="car711" vClass="passenger"/>