<?xml version="1.0" ?>
<additional xmlns:xsi="http://www.w3.org/2001/XMLSchema-instance" xsi:noNamespaceSchemaLocation="http://sumo.dlr.de/xsd/additional_file.xsd">
	<vTypeDistribution id="car">
		<vType id="car0" tau="2.259" accel="1.000" decel="1.000" maxSpeed="9.568" carFollowModel="EIDM" emergencyDecel="5.000" sigma="1.000" lcSigma="0.720" lcSublane="0.519" lcPushy="0.417" lcAssertive="68.478" vClass="passenger" lcStrategic="999.000" maxSpeedLat="4.000" lcKeepRight="0.000" lcOvertakeRight="0.000" lcCooperative="0.825" lcLookaheadLeft="2.000"/>
		<vType id="car1" tau="2.800" accel="1.000" decel="1.000" maxSpeed="13.156" carFollowModel="EIDM" emergencyDecel="5.000" sigma="1.000" lcSigma="0.720" lcSublane="0.519" lcPushy="0.417" lcAssertive="68.478" vClass="passenger" lcStrategic="999.000" maxSpeedLat="4.000" lcKeepRight="0.000" lcOvertakeRight="0.000" lcCooperative="0.825" lcLookaheadLeft="2.000"/>
		<vType id="car2" tau="1.606" accel="1.000" decel="1.000" maxSpeed="20.187" carFollowModel="EIDM" emergencyDecel="5.000" sigma="1.000" lcSigma="0.720" lcSublane="0.519" lcPushy="0.417" lcAssertive="68.478" vClass="passenger" lcStrategic="999.000" maxSpeedLat="4.000" lcKeepRight="0.000" lcOvertakeRight="0.000" lcCooperative="0.825" lcLookaheadLeft="2.000"/>
		<vType id="car3" tau="1.503" accel="1.000" decel="1.000" maxSpeed="11.291" carFollowModel="EIDM" emergencyDecel="5.000" sigma="1.000" lcSigma="0.720" lcSublane="0.519" lcPushy="0.417" lcAssertive="68.478" vClass="passenger" lcStrategic="999.000" maxSpeedLat="4.000" lcKeepRight="0.000" lcOvertakeRight="0.000" lcCooperative="0.825" lcLookaheadLeft="2.000"/>
		<vType id="car4" tau="2.761" accel="1.000" decel="1.000" maxSpeed="29.580" carFollowModel="EIDM" emergencyDecel="5.000" sigma="1.000" lcSigma="0.720" lcSublane="0.519" lcPushy="0.417" lcAssertive="68.478" vClass="passenger" lcStrategic="999.000" maxSpeedLat="4.000" lcKeepRight="0.000" lcOvertakeRight="0.000" lcCooperative="0.825" lcLookaheadLeft="2.000"/>
		<vType id="car5" tau="3.172" accel="1.000" decel="1.000" maxSpeed="9.885" carFollowModel="EIDM" emergencyDecel="5.000" sigma="1.000" lcSigma="0.720" lcSublane="0.519" lcPushy="0.417" lcAssertive="68.478" vClass="passenger" lcStrategic="999.000" maxSpeedLat="4.000" lcKeepRight="0.000" lcOvertakeRight="0.000" lcCooperative="0.825" lcLookaheadLeft="2.000"/>
		<vType id="car6" tau="2.921" accel="1.000" decel="1.000" maxSpeed="29.218" carFollowModel="EIDM" emergencyDecel="5.000" sigma="1.000" lcSigma="0.720" lcSublane="0.519" lcPushy="0.417" lcAssertive="68.478" vClass="passenger" lcStrategic="999.000" maxSpeedLat="4.000" lcKeepRight="0.000" lcOvertakeRight="0.000" lcCooperative="0.825" lcLookaheadLeft="2.000"/>
		<vType id="car7" tau="2.325" accel="1.000" decel="1.000" maxSpeed="7.967" carFollowModel="EIDM" emergencyDecel="5.000" sigma="1.000" lcSigma="0.720" lcSublane="0.519" lcPushy="0.417" lcAssertive="68.478" vClass="passenger" lcStrategic="999.000" maxSpeedLat="4.000" lcKeepRight="0.000" lcOvertakeRight="0.000" lcCooperative="0.825" lcLookaheadLeft="2.000"/>
		<vType id="car8" tau="1.625" accel="1.000" decel="1.000" maxSpeed="18.201" carFollowModel="EIDM" emergencyDecel="5.000" sigma="1.000" lcSigma="0.720" lcSublane="0.519" lcPushy="0.417" lcAssertive="68.478" vClass="passenger" lcStrategic="999.000" maxSpeedLat="4.000" lcKeepRight="0.000" lcOvertakeRight="0.000" lcCooperative="0.825" lcLookaheadLeft="2.000"/>
		<vType id="car9" tau="1.977" accel="1.000" decel="1.000" maxSpeed="21.034" carFollowModel="EIDM" emergencyDecel="5.000" sigma="1.000" lcSigma="0.720" lcSublane="0.519" lcPushy="0.417" lcAssertive="68.478" vClass="passenger" lcStrategic="999.000" maxSpeedLat="4.000" lcKeepRight="0.000" lcOvertakeRight="0.000" lcCooperative="0.825" lcLookaheadLeft="2.000"/>
		<vType id="car10" tau="1.013" accel="1.000" decel="1.000" maxSpeed="17.634" carFollowModel="EIDM" emergencyDecel="5.000" sigma="1.000" lcSigma="0.720" lcSublane="0.519" lcPushy="0.417" lcAssertive="68.478" vClass="passenger" lcStrategic="999.000" maxSpeedLat="4.000" lcKeepRight="0.000" lcOvertakeRight="0.000" lcCooperative="0.825" lcLookaheadLeft="2.000"/>
		<vType id="car11" tau="1.897" accel="1.000" decel="1.000" maxSpeed="23.958" carFollowModel="EIDM" emergencyDecel="5.000" sigma="1.000" lcSigma="0.720" lcSublane="0.519" lcPushy="0.417" lcAssertive="68.478" vClass="passenger" lcStrategic="999.000" maxSpeedLat="4.000" lcKeepRight="0.000" lcOvertakeRight="0.000" lcCooperative="0.825" lcLookaheadLeft="2.000"/>
		<vType id="car12" tau="2.364" accel="1.000" decel="1.000" maxSpeed="27.678" carFollowModel="EIDM" emergencyDecel="5.000" sigma="1.000" lcSigma="0.720" lcSublane="0.519" lcPushy="0.417" lcAssertive="68.478" vClass="passenger" lcStrategic="999.000" maxSpeedLat="4.000" lcKeepRight="0.000" lcOvertakeRight="0.000" lcCooperative="0.825" lcLookaheadLeft="2.000"/>
		<vType id="car13" tau="1.842" accel="1.000" decel="1.000" maxSpeed="15.964" carFollowModel="EIDM" emergencyDecel="5.000" sigma="1.000" lcSigma="0.720" lcSublane="0.519" lcPushy="0.417" lcAssertive="68.478" vClass="passenger" lcStrategic="999.000" maxSpeedLat="4.000" lcKeepRight="0.000" lcOvertakeRight="0.000" lcCooperative="0.825" lcLookaheadLeft="2.000"/>
		<vType id="car14" tau="2.888" accel="1.000" decel="1.000" maxSpeed="12.326" carFollowModel="EIDM" emergencyDecel="5.000" sigma="1.000" lcSigma="0.720" lcSublane="0.519" lcPushy="0.417" lcAssertive="68.478" vClass="passenger" lcStrategic="999.000" maxSpeedLat="4.000" lcKeepRight="0.000" lcOvertakeRight="0.000" lcCooperative="0.825" lcLookaheadLeft="2.000"/>
		<vType id="car15" tau="1.166" accel="1.000" decel="1.000" maxSpeed="23.208" carFollowModel="EIDM" emergencyDecel="5.000" sigma="1.000" lcSigma="0.720" lcSublane="0.519" lcPushy="0.417" lcAssertive="68.478" vClass="passenger" lcStrategic="999.000" maxSpeedLat="4.000" lcKeepRight="0.000" lcOvertakeRight="0.000" lcCooperative="0.825" lcLookaheadLeft="2.000"/>
		<vType id="car16" tau="1.480" accel="1.000" decel="1.000" maxSpeed="21.269" carFollowModel="EIDM" emergencyDecel="5.000" sigma="1.000" lcSigma="0.720" lcSublane="0.519" lcPushy="0.417" lcAssertive="68.478" vClass="passenger" lcStrategic="999.000" maxSpeedLat="4.000" lcKeepRight="0.000" lcOvertakeRight="0.000" lcCooperative="0.825" lcLookaheadLeft="2.000"/>
		<vType id="car17" tau="1.532" accel="1.000" decel="1.000" maxSpeed="23.290" carFollowModel="EIDM" emergencyDecel="5.000" sigma="1.000" lcSigma="0.720" lcSublane="0.519" lcPushy="0.417" lcAssertive="68.478" vClass="passenger" lcStrategic="999.000" maxSpeedLat="4.000" lcKeepRight="0.000" lcOvertakeRight="0.000" lcCooperative="0.825" lcLookaheadLeft="2.000"/>
		<vType id="car18" tau="2.129" accel="1.000" decel="1.000" maxSpeed="16.743" carFollowModel="EIDM" emergencyDecel="5.000" sigma="1.000" lcSigma="0.720" lcSublane="0.519" lcPushy="0.417" lcAssertive="68.478" vClass="passenger" lcStrategic="999.000" maxSpeedLat="4.000" lcKeepRight="0.000" lcOvertakeRight="0.000" lcCooperative="0.825" lcLookaheadLeft="2.000"/>
		<vType id="car19" tau="2.651" accel="1.000" decel="1.000" maxSpeed="24.714" carFollowModel="EIDM" emergencyDecel="5.000" sigma="1.000" lcSigma="0.720" lcSublane="0.519" lcPushy="0.417" lcAssertive="68.478" vClass="passenger" lcStrategic="999.000" maxSpeedLat="4.000" lcKeepRight="0.000" lcOvertakeRight="0.000" lcCooperative="0.825" lcLookaheadLeft="2.000"/>
		<vType id="car20" tau="1.941" accel="1.000" decel="1.000" maxSpeed="19.769" carFollowModel="EIDM" emergencyDecel="5.000" sigma="1.000" lcSigma="0.720" lcSublane="0.519" lcPushy="0.417" lcAssertive="68.478" vClass="passenger" lcStrategic="999.000" maxSpeedLat="4.000" lcKeepRight="0.000" lcOvertakeRight="0.000" lcCooperative="0.825" lcLookaheadLeft="2.000"/>
		<vType id="car21" tau="2.078" accel="1.000" decel="1.000" maxSpeed="12.863" carFollowModel="EIDM" emergencyDecel="5.000" sigma="1.000" lcSigma="0.720" lcSublane="0.519" lcPushy="0.417" lcAssertive="68.478" vClass="passenger" lcStrategic="999.000" maxSpeedLat="4.000" lcKeepRight="0.000" lcOvertakeRight="0.000" lcCooperative="0.825" lcLookaheadLeft="2.000"/>
		<vType id="car22" tau="2.262" accel="1.000" decel="1.000" maxSpeed="7.088" carFollowModel="EIDM" emergencyDecel="5.000" sigma="1.000" lcSigma="0.720" lcSublane="0.519" lcPushy="0.417" lcAssertive="68.478" vClass="passenger" lcStrategic="999.000" maxSpeedLat="4.000" lcKeepRight="0.000" lcOvertakeRight="0.000" lcCooperative="0.825" lcLookaheadLeft="2.000"/>
		<vType id="car23" tau="2.010" accel="1.000" decel="1.000" maxSpeed="6.150" carFollowModel="EIDM" emergencyDecel="5.000" sigma="1.000" lcSigma="0.720" lcSublane="0.519" lcPushy="0.417" lcAssertive="68.478" vClass="passenger" lcStrategic="999.000" maxSpeedLat="4.000" lcKeepRight="0.000" lcOvertakeRight="0.000" lcCooperative="0.825" lcLookaheadLeft="2.000"/>
		<vType id="car24" tau="1.767" accel="1.000" decel="1.000" maxSpeed="8.599" carFollowModel="EIDM" emergencyDecel="5.000" sigma="1.000" lcSigma="0.720" lcSublane="0.519" lcPushy="0.417" lcAssertive="68.478" vClass="passenger" lcStrategic="999.000" maxSpeedLat="4.000" lcKeepRight="0.000" lcOvertakeRight="0.000" lcCooperative="0.825" lcLookaheadLeft="2.000"/>
		<vType id="car25" tau="1.060" accel="1.000" decel="1.000" maxSpeed="8.886" carFollowModel="EIDM" emergencyDecel="5.000" sigma="1.000" lcSigma="0.720" lcSublane="0.519" lcPushy="0.417" lcAssertive="68.478" vClass="passenger" lcStrategic="999.000" maxSpeedLat="4.000" lcKeepRight="0.000" lcOvertakeRight="0.000" lcCooperative="0.825" lcLookaheadLeft="2.000"/>
		<vType id="car26" tau="3.060" accel="1.000" decel="1.000" maxSpeed="12.360" carFollowModel="EIDM" emergencyDecel="5.000" sigma="1.000" lcSigma="0.720" lcSublane="0.519" lcPushy="0.417" lcAssertive="68.478" vClass="passenger" lcStrategic="999.000" maxSpeedLat="4.000" lcKeepRight="0.000" lcOvertakeRight="0.000" lcCooperative="0.825" lcLookaheadLeft="2.000"/>
		<vType id="car27" tau="2.477" accel="1.000" decel="1.000" maxSpeed="12.076" carFollowModel="EIDM" emergencyDecel="5.000" sigma="1.000" lcSigma="0.720" lcSublane="0.519" lcPushy="0.417" lcAssertive="68.478" vClass="passenger" lcStrategic="999.000" maxSpeedLat="4.000" lcKeepRight="0.000" lcOvertakeRight="0.000" lcCooperative="0.825" lcLookaheadLeft="2.000"/>
		<vType id="car28" tau="2.772" accel="1.000" decel="1.000" maxSpeed="12.008" carFollowModel="EIDM" emergencyDecel="5.000" sigma="1.000" lcSigma="0.720" lcSublane="0.519" lcPushy="0.417" lcAssertive="68.478" vClass="passenger" lcStrategic="999.000" maxSpeedLat="4.000" lcKeepRight="0.000" lcOvertakeRight="0.000" lcCooperative="0.825" lcLookaheadLeft="2.000"/>
		<vType id="car29" tau="2.570" accel="1.000" decel="1.000" maxSpeed="12.679" carFollowModel="EIDM" emergencyDecel="5.000" sigma="1.000" lcSigma="0.720" lcSublane="0.519" lcPushy="0.417" lcAssertive="68.478" vClass="passenger" lcStrategic="999.000" maxSpeedLat="4.000" lcKeepRight="0.000" lcOvertakeRight="0.000" lcCooperative="0.825" lcLookaheadLeft="2.000"/>
		<vType id="car30" tau="1.752" accel="1.000" decel="1.000" maxSpeed="15.446" carFollowModel="EIDM" emergencyDecel="5.000" sigma="1.000" lcSigma="0.720" lcSublane="0.519" lcPushy="0.417" lcAssertive="68.478" vClass="passenger" lcStrategic="999.000" maxSpeedLat="4.000" lcKeepRight="0.000" lcOvertakeRight="0.000" lcCooperative="0.825" lcLookaheadLeft="2.000"/>
		<vType id="car31" tau="2.512" accel="1.000" decel="1.000" maxSpeed="14.223" carFollowModel="EIDM" emergencyDecel="5.000" sigma="1.000" lcSigma="0.720" lcSublane="0.519" lcPushy="0.417" lcAssertive="68.478" vClass="passenger" lcStrategic="999.000" maxSpeedLat="4.000" lcKeepRight="0.000" lcOvertakeRight="0.000" lcCooperative="0.825" lcLookaheadLeft="2.000"/>
		<vType id="car32" tau="2.032" accel="1.000" decel="1.000" maxSpeed="13.199" carFollowModel="EIDM" emergencyDecel="5.000" sigma="1.000" lcSigma="0.720" lcSublane="0.519" lcPushy="0.417" lcAssertive="68.478" vClass="passenger" lcStrategic="999.000" maxSpeedLat="4.000" lcKeepRight="0.000" lcOvertakeRight="0.000" lcCooperative="0.825" lcLookaheadLeft="2.000"/>
		<vType id="car33" tau="2.310" accel="1.000" decel="1.000" maxSpeed="6.116" carFollowModel="EIDM" emergencyDecel="5.000" sigma="1.000" lcSigma="0.720" lcSublane="0.519" lcPushy="0.417" lcAssertive="68.478" vClass="passenger" lcStrategic="999.000" maxSpeedLat="4.000" lcKeepRight="0.000" lcOvertakeRight="0.000" lcCooperative="0.825" lcLookaheadLeft="2.000"/>
		<vType id="car34" tau="2.282" accel="1.000" decel="1.000" maxSpeed="14.868" carFollowModel="EIDM" emergencyDecel="5.000" sigma="1.000" lcSigma="0.720" lcSublane="0.519" lcPushy="0.417" lcAssertive="68.478" vClass="passenger" lcStrategic="999.000" maxSpeedLat="4.000" lcKeepRight="0.000" lcOvertakeRight="0.000" lcCooperative="0.825" lcLookaheadLeft="2.000"/>
		<vType id="car35" tau="1.655" accel="1.000" decel="1.000" maxSpeed="19.556" carFollowModel="EIDM" emergencyDecel="5.000" sigma="1.000" lcSigma="0.720" lcSublane="0.519" lcPushy="0.417" lcAssertive="68.478" vClass="passenger" lcStrategic="999.000" maxSpeedLat="4.000" lcKeepRight="0.000" lcOvertakeRight="0.000" lcCooperative="0.825" lcLookaheadLeft="2.000"/>
		<vType id="car36" tau="1.852" accel="1.000" decel="1.000" maxSpeed="23.419" carFollowModel="EIDM" emergencyDecel="5.000" sigma="1.000" lcSigma="0.720" lcSublane="0.519" lcPushy="0.417" lcAssertive="68.478" vClass="passenger" lcStrategic="999.000" maxSpeedLat="4.000" lcKeepRight="0.000" lcOvertakeRight="0.000" lcCooperative="0.825" lcLookaheadLeft="2.000"/>
		<vType id="car37" tau="2.356" accel="1.000" decel="1.000" maxSpeed="11.208" carFollowModel="EIDM" emergencyDecel="5.000" sigma="1.000" lcSigma="0.720" lcSublane="0.519" lcPushy="0.417" lcAssertive="68.478" vClass="passenger" lcStrategic="999.000" maxSpeedLat="4.000" lcKeepRight="0.000" lcOvertakeRight="0.000" lcCooperative="0.825" lcLookaheadLeft="2.000"/>
		<vType id="car38" tau="2.449" accel="1.000" decel="1.000" maxSpeed="7.117" carFollowModel="EIDM" emergencyDecel="5.000" sigma="1.000" lcSigma="0.720" lcSublane="0.519" lcPushy="0.417" lcAssertive="68.478" vClass="passenger" lcStrategic="999.000" maxSpeedLat="4.000" lcKeepRight="0.000" lcOvertakeRight="0.000" lcCooperative="0.825" lcLookaheadLeft="2.000"/>
		<vType id="car39" tau="2.353" accel="1.000" decel="1.000" maxSpeed="11.879" carFollowModel="EIDM" emergencyDecel="5.000" sigma="1.000" lcSigma="0.720" lcSublane="0.519" lcPushy="0.417" lcAssertive="68.478" vClass="passenger" lcStrategic="999.000" maxSpeedLat="4.000" lcKeepRight="0.000" lcOvertakeRight="0.000" lcCooperative="0.825" lcLookaheadLeft="2.000"/>
		<vType id="car40" tau="3.162" accel="1.000" decel="1.000" maxSpeed="22.301" carFollowModel="EIDM" emergencyDecel="5.000" sigma="1.000" lcSigma="0.720" lcSublane="0.519" lcPushy="0.417" lcAssertive="68.478" vClass="passenger" lcStrategic="999.000" maxSpeedLat="4.000" lcKeepRight="0.000" lcOvertakeRight="0.000" lcCooperative="0.825" lcLookaheadLeft="2.000"/>
		<vType id="car41" tau="1.321" accel="1.000" decel="1.000" maxSpeed="19.224" carFollowModel="EIDM" emergencyDecel="5.000" sigma="1.000" lcSigma="0.720" lcSublane="0.519" lcPushy="0.417" lcAssertive="68.478" vClass="passenger" lcStrategic="999.000" maxSpeedLat="4.000" lcKeepRight="0.000" lcOvertakeRight="0.000" lcCooperative="0.825" lcLookaheadLeft="2.000"/>
		<vType id="car42" tau="2.296" accel="1.000" decel="1.000" maxSpeed="12.458" carFollowModel="EIDM" emergencyDecel="5.000" sigma="1.000" lcSigma="0.720" lcSublane="0.519" lcPushy="0.417" lcAssertive="68.478" vClass="passenger" lcStrategic="999.000" maxSpeedLat="4.000" lcKeepRight="0.000" lcOvertakeRight="0.000" lcCooperative="0.825" lcLookaheadLeft="2.000"/>
		<vType id="car43" tau="2.031" accel="1.000" decel="1.000" maxSpeed="17.723" carFollowModel="EIDM" emergencyDecel="5.000" sigma="1.000" lcSigma="0.720" lcSublane="0.519" lcPushy="0.417" lcAssertive="68.478" vClass="passenger" lcStrategic="999.000" maxSpeedLat="4.000" lcKeepRight="0.000" lcOvertakeRight="0.000" lcCooperative="0.825" lcLookaheadLeft="2.000"/>
		<vType id="car44" tau="2.622" accel="1.000" decel="1.000" maxSpeed="13.284" carFollowModel="EIDM" emergencyDecel="5.000" sigma="1.000" lcSigma="0.720" lcSublane="0.519" lcPushy="0.417" lcAssertive="68.478" vClass="passenger" lcStrategic="999.000" maxSpeedLat="4.000" lcKeepRight="0.000" lcOvertakeRight="0.000" lcCooperative="0.825" lcLookaheadLeft="2.000"/>
		<vType id="car45" tau="2.944" accel="1.000" decel="1.000" maxSpeed="28.285" carFollowModel="EIDM" emergencyDecel="5.000" sigma="1.000" lcSigma="0.720" lcSublane="0.519" lcPushy="0.417" lcAssertive="68.478" vClass="passenger" lcStrategic="999.000" maxSpeedLat="4.000" lcKeepRight="0.000" lcOvertakeRight="0.000" lcCooperative="0.825" lcLookaheadLeft="2.000"/>
		<vType id="car46" tau="1.758" accel="1.000" decel="1.000" maxSpeed="23.200" carFollowModel="EIDM" emergencyDecel="5.000" sigma="1.000" lcSigma="0.720" lcSublane="0.519" lcPushy="0.417" lcAssertive="68.478" vClass="passenger" lcStrategic="999.000" maxSpeedLat="4.000" lcKeepRight="0.000" lcOvertakeRight="0.000" lcCooperative="0.825" lcLookaheadLeft="2.000"/>
		<vType id="car47" tau="1.872" accel="1.000" decel="1.000" maxSpeed="10.302" carFollowModel="EIDM" emergencyDecel="5.000" sigma="1.000" lcSigma="0.720" lcSublane="0.519" lcPushy="0.417" lcAssertive="68.478" vClass="passenger" lcStrategic="999.000" maxSpeedLat="4.000" lcKeepRight="0.000" lcOvertakeRight="0.000" lcCooperative="0.825" lcLookaheadLeft="2.000"/>
		<vType id="car48" tau="2.517" accel="1.000" decel="1.000" maxSpeed="20.064" carFollowModel="EIDM" emergencyDecel="5.000" sigma="1.000" lcSigma="0.720" lcSublane="0.519" lcPushy="0.417" lcAssertive="68.478" vClass="passenger" lcStrategic="999.000" maxSpeedLat="4.000" lcKeepRight="0.000" lcOvertakeRight="0.000" lcCooperative="0.825" lcLookaheadLeft="2.000"/>
		<vType id="car49" tau="0.739" accel="1.000" decel="1.000" maxSpeed="13.556" carFollowModel="EIDM" emergencyDecel="5.000" sigma="1.000" lcSigma="0.720" lcSublane="0.519" lcPushy="0.417" lcAssertive="68.478" vClass="passenger" lcStrategic="999.000" maxSpeedLat="4.000" lcKeepRight="0.000" lcOvertakeRight="0.000" lcCooperative="0.825" lcLookaheadLeft="2.000"/>
		<vType id="car50" tau="2.479" accel="1.000" decel="1.000" maxSpeed="25.647" carFollowModel="EIDM" emergencyDecel="5.000" sigma="1.000" lcSigma="0.720" lcSublane="0.519" lcPushy="0.417" lcAssertive="68.478" vClass="passenger" lcStrategic="999.000" maxSpeedLat="4.000" lcKeepRight="0.000" lcOvertakeRight="0.000" lcCooperative="0.825" lcLookaheadLeft="2.000"/>
		<vType id="car51" tau="2.345" accel="1.000" decel="1.000" maxSpeed="25.339" carFollowModel="EIDM" emergencyDecel="5.000" sigma="1.000" lcSigma="0.720" lcSublane="0.519" lcPushy="0.417" lcAssertive="68.478" vClass="passenger" lcStrategic="999.000" maxSpeedLat="4.000" lcKeepRight="0.000" lcOvertakeRight="0.000" lcCooperative="0.825" lcLookaheadLeft="2.000"/>
		<vType id="car52" tau="1.492" accel="1.000" decel="1.000" maxSpeed="20.249" carFollowModel="EIDM" emergencyDecel="5.000" sigma="1.000" lcSigma="0.720" lcSublane="0.519" lcPushy="0.417" lcAssertive="68.478" vClass="passenger" lcStrategic="999.000" maxSpeedLat="4.000" lcKeepRight="0.000" lcOvertakeRight="0.000" lcCooperative="0.825" lcLookaheadLeft="2.000"/>
		<vType id="car53" tau="2.328" accel="1.000" decel="1.000" maxSpeed="9.885" carFollowModel="EIDM" emergencyDecel="5.000" sigma="1.000" lcSigma="0.720" lcSublane="0.519" lcPushy="0.417" lcAssertive="68.478" vClass="passenger" lcStrategic="999.000" maxSpeedLat="4.000" lcKeepRight="0.000" lcOvertakeRight="0.000" lcCooperative="0.825" lcLookaheadLeft="2.000"/>
		<vType id="car54" tau="1.355" accel="1.000" decel="1.000" maxSpeed="16.887" carFollowModel="EIDM" emergencyDecel="5.000" sigma="1.000" lcSigma="0.720" lcSublane="0.519" lcPushy="0.417" lcAssertive="68.478" vClass="passenger" lcStrategic="999.000" maxSpeedLat="4.000" lcKeepRight="0.000" lcOvertakeRight="0.000" lcCooperative="0.825" lcLookaheadLeft="2.000"/>
		<vType id="car55" tau="2.803" accel="1.000" decel="1.000" maxSpeed="12.032" carFollowModel="EIDM" emergencyDecel="5.000" sigma="1.000" lcSigma="0.720" lcSublane="0.519" lcPushy="0.417" lcAssertive="68.478" vClass="passenger" lcStrategic="999.000" maxSpeedLat="4.000" lcKeepRight="0.000" lcOvertakeRight="0.000" lcCooperative="0.825" lcLookaheadLeft="2.000"/>
		<vType id="car56" tau="2.353" accel="1.000" decel="1.000" maxSpeed="19.924" carFollowModel="EIDM" emergencyDecel="5.000" sigma="1.000" lcSigma="0.720" lcSublane="0.519" lcPushy="0.417" lcAssertive="68.478" vClass="passenger" lcStrategic="999.000" maxSpeedLat="4.000" lcKeepRight="0.000" lcOvertakeRight="0.000" lcCooperative="0.825" lcLookaheadLeft="2.000"/>
		<vType id="car57" tau="1.832" accel="1.000" decel="1.000" maxSpeed="12.159" carFollowModel="EIDM" emergencyDecel="5.000" sigma="1.000" lcSigma="0.720" lcSublane="0.519" lcPushy="0.417" lcAssertive="68.478" vClass="passenger" lcStrategic="999.000" maxSpeedLat="4.000" lcKeepRight="0.000" lcOvertakeRight="0.000" lcCooperative="0.825" lcLookaheadLeft="2.000"/>
		<vType id="car58" tau="1.538" accel="1.000" decel="1.000" maxSpeed="6.983" carFollowModel="EIDM" emergencyDecel="5.000" sigma="1.000" lcSigma="0.720" lcSublane="0.519" lcPushy="0.417" lcAssertive="68.478" vClass="passenger" lcStrategic="999.000" maxSpeedLat="4.000" lcKeepRight="0.000" lcOvertakeRight="0.000" lcCooperative="0.825" lcLookaheadLeft="2.000"/>
		<vType id="car59" tau="1.975" accel="1.000" decel="1.000" maxSpeed="19.497" carFollowModel="EIDM" emergencyDecel="5.000" sigma="1.000" lcSigma="0.720" lcSublane="0.519" lcPushy="0.417" lcAssertive="68.478" vClass="passenger" lcStrategic="999.000" maxSpeedLat="4.000" lcKeepRight="0.000" lcOvertakeRight="0.000" lcCooperative="0.825" lcLookaheadLeft="2.000"/>
		<vType id="car60" tau="2.061" accel="1.000" decel="1.000" maxSpeed="9.881" carFollowModel="EIDM" emergencyDecel="5.000" sigma="1.000" lcSigma="0.720" lcSublane="0.519" lcPushy="0.417" lcAssertive="68.478" vClass="passenger" lcStrategic="999.000" maxSpeedLat="4.000" lcKeepRight="0.000" lcOvertakeRight="0.000" lcCooperative="0.825" lcLookaheadLeft="2.000"/>
		<vType id="car61" tau="2.456" accel="1.000" decel="1.000" maxSpeed="17.967" carFollowModel="EIDM" emergencyDecel="5.000" sigma="1.000" lcSigma="0.720" lcSublane="0.519" lcPushy="0.417" lcAssertive="68.478" vClass="passenger" lcStrategic="999.000" maxSpeedLat="4.000" lcKeepRight="0.000" lcOvertakeRight="0.000" lcCooperative="0.825" lcLookaheadLeft="2.000"/>
		<vType id="car62" tau="3.303" accel="1.000" decel="1.000" maxSpeed="18.360" carFollowModel="EIDM" emergencyDecel="5.000" sigma="1.000" lcSigma="0.720" lcSublane="0.519" lcPushy="0.417" lcAssertive="68.478" vClass="passenger" lcStrategic="999.000" maxSpeedLat="4.000" lcKeepRight="0.000" lcOvertakeRight="0.000" lcCooperative="0.825" lcLookaheadLeft="2.000"/>
		<vType id="car63" tau="1.682" accel="1.000" decel="1.000" maxSpeed="10.572" carFollowModel="EIDM" emergencyDecel="5.000" sigma="1.000" lcSigma="0.720" lcSublane="0.519" lcPushy="0.417" lcAssertive="68.478" vClass="passenger" lcStrategic="999.000" maxSpeedLat="4.000" lcKeepRight="0.000" lcOvertakeRight="0.000" lcCooperative="0.825" lcLookaheadLeft="2.000"/>
		<vType id="car64" tau="1.204" accel="1.000" decel="1.000" maxSpeed="14.409" carFollowModel="EIDM" emergencyDecel="5.000" sigma="1.000" lcSigma="0.720" lcSublane="0.519" lcPushy="0.417" lcAssertive="68.478" vClass="passenger" lcStrategic="999.000" maxSpeedLat="4.000" lcKeepRight="0.000" lcOvertakeRight="0.000" lcCooperative="0.825" lcLookaheadLeft="2.000"/>
		<vType id="car65" tau="3.130" accel="1.000" decel="1.000" maxSpeed="14.861" carFollowModel="EIDM" emergencyDecel="5.000" sigma="1.000" lcSigma="0.720" lcSublane="0.519" lcPushy="0.417" lcAssertive="68.478" vClass="passenger" lcStrategic="999.000" maxSpeedLat="4.000" lcKeepRight="0.000" lcOvertakeRight="0.000" lcCooperative="0.825" lcLookaheadLeft="2.000"/>
		<vType id="car66" tau="1.927" accel="1.000" decel="1.000" maxSpeed="22.132" carFollowModel="EIDM" emergencyDecel="5.000" sigma="1.000" lcSigma="0.720" lcSublane="0.519" lcPushy="0.417" lcAssertive="68.478" vClass="passenger" lcStrategic="999.000" maxSpeedLat="4.000" lcKeepRight="0.000" lcOvertakeRight="0.000" lcCooperative="0.825" lcLookaheadLeft="2.000"/>
		<vType id="car67" tau="2.799" accel="1.000" decel="1.000" maxSpeed="13.950" carFollowModel="EIDM" emergencyDecel="5.000" sigma="1.000" lcSigma="0.720" lcSublane="0.519" lcPushy="0.417" lcAssertive="68.478" vClass="passenger" lcStrategic="999.000" maxSpeedLat="4.000" lcKeepRight="0.000" lcOvertakeRight="0.000" lcCooperative="0.825" lcLookaheadLeft="2.000"/>
		<vType id="car68" tau="1.488" accel="1.000" decel="1.000" maxSpeed="24.062" carFollowModel="EIDM" emergencyDecel="5.000" sigma="1.000" lcSigma="0.720" lcSublane="0.519" lcPushy="0.417" lcAssertive="68.478" vClass="passenger" lcStrategic="999.000" maxSpeedLat="4.000" lcKeepRight="0.000" lcOvertakeRight="0.000" lcCooperative="0.825" lcLookaheadLeft="2.000"/>
		<vType id="car69" tau="2.289" accel="1.000" decel="1.000" maxSpeed="8.780" carFollowModel="EIDM" emergencyDecel="5.000" sigma="1.000" lcSigma="0.720" lcSublane="0.519" lcPushy="0.417" lcAssertive="68.478" vClass="passenger" lcStrategic="999.000" maxSpeedLat="4.000" lcKeepRight="0.000" lcOvertakeRight="0.000" lcCooperative="0.825" lcLookaheadLeft="2.000"/>
		<vType id="car70" tau="2.171" accel="1.000" decel="1.000" maxSpeed="18.321" carFollowModel="EIDM" emergencyDecel="5.000" sigma="1.000" lcSigma="0.720" lcSublane="0.519" lcPushy="0.417" lcAssertive="68.478" vClass="passenger" lcStrategic="999.000" maxSpeedLat="4.000" lcKeepRight="0.000" lcOvertakeRight="0.000" lcCooperative="0.825" lcLookaheadLeft="2.000"/>
		<vType id="car71" tau="1.943" accel="1.000" decel="1.000" maxSpeed="12.715" carFollowModel="EIDM" emergencyDecel="5.000" sigma="1.000" lcSigma="0.720" lcSublane="0.519" lcPushy="0.417" lcAssertive="68.478" vClass="passenger" lcStrategic="999.000" maxSpeedLat="4.000" lcKeepRight="0.000" lcOvertakeRight="0.000" lcCooperative="0.825" lcLookaheadLeft="2.000"/>
		<vType id="car72" tau="1.358" accel="1.000" decel="1.000" maxSpeed="19.274" carFollowModel="EIDM" emergencyDecel="5.000" sigma="1.000" lcSigma="0.720" lcSublane="0.519" lcPushy="0.417" lcAssertive="68.478" vClass="passenger" lcStrategic="999.000" maxSpeedLat="4.000" lcKeepRight="0.000" lcOvertakeRight="0.000" lcCooperative="0.825" lcLookaheadLeft="2.000"/>
		<vType id="car73" tau="1.576" accel="1.000" decel="1.000" maxSpeed="9.034" carFollowModel="EIDM" emergencyDecel="5.000" sigma="1.000" lcSigma="0.720" lcSublane="0.519" lcPushy="0.417" lcAssertive="68.478" vClass="passenger" lcStrategic="999.000" maxSpeedLat="4.000" lcKeepRight="0.000" lcOvertakeRight="0.000" lcCooperative="0.825" lcLookaheadLeft="2.000"/>
		<vType id="car74" tau="2.235" accel="1.000" decel="1.000" maxSpeed="8.394" carFollowModel="EIDM" emergencyDecel="5.000" sigma="1.000" lcSigma="0.720" lcSublane="0.519" lcPushy="0.417" lcAssertive="68.478" vClass="passenger" lcStrategic="999.000" maxSpeedLat="4.000" lcKeepRight="0.000" lcOvertakeRight="0.000" lcCooperative="0.825" lcLookaheadLeft="2.000"/>
		<vType id="car75" tau="2.068" accel="1.000" decel="1.000" maxSpeed="12.570" carFollowModel="EIDM" emergencyDecel="5.000" sigma="1.000" lcSigma="0.720" lcSublane="0.519" lcPushy="0.417" lcAssertive="68.478" vClass="passenger" lcStrategic="999.000" maxSpeedLat="4.000" lcKeepRight="0.000" lcOvertakeRight="0.000" lcCooperative="0.825" lcLookaheadLeft="2.000"/>
		<vType id="car76" tau="2.094" accel="1.000" decel="1.000" maxSpeed="16.692" carFollowModel="EIDM" emergencyDecel="5.000" sigma="1.000" lcSigma="0.720" lcSublane="0.519" lcPushy="0.417" lcAssertive="68.478" vClass="passenger" lcStrategic="999.000" maxSpeedLat="4.000" lcKeepRight="0.000" lcOvertakeRight="0.000" lcCooperative="0.825" lcLookaheadLeft="2.000"/>
		<vType id="car77" tau="1.905" accel="1.000" decel="1.000" maxSpeed="7.188" carFollowModel="EIDM" emergencyDecel="5.000" sigma="1.000" lcSigma="0.720" lcSublane="0.519" lcPushy="0.417" lcAssertive="68.478" vClass="passenger" lcStrategic="999.000" maxSpeedLat="4.000" lcKeepRight="0.000" lcOvertakeRight="0.000" lcCooperative="0.825" lcLookaheadLeft="2.000"/>
		<vType id="car78" tau="2.515" accel="1.000" decel="1.000" maxSpeed="9.907" carFollowModel="EIDM" emergencyDecel="5.000" sigma="1.000" lcSigma="0.720" lcSublane="0.519" lcPushy="0.417" lcAssertive="68.478" vClass="passenger" lcStrategic="999.000" maxSpeedLat="4.000" lcKeepRight="0.000" lcOvertakeRight="0.000" lcCooperative="0.825" lcLookaheadLeft="2.000"/>
		<vType id="car79" tau="2.758" accel="1.000" decel="1.000" maxSpeed="25.129" carFollowModel="EIDM" emergencyDecel="5.000" sigma="1.000" lcSigma="0.720" lcSublane="0.519" lcPushy="0.417" lcAssertive="68.478" vClass="passenger" lcStrategic="999.000" maxSpeedLat="4.000" lcKeepRight="0.000" lcOvertakeRight="0.000" lcCooperative="0.825" lcLookaheadLeft="2.000"/>
		<vType id="car80" tau="1.090" accel="1.000" decel="1.000" maxSpeed="15.940" carFollowModel="EIDM" emergencyDecel="5.000" sigma="1.000" lcSigma="0.720" lcSublane="0.519" lcPushy="0.417" lcAssertive="68.478" vClass="passenger" lcStrategic="999.000" maxSpeedLat="4.000" lcKeepRight="0.000" lcOvertakeRight="0.000" lcCooperative="0.825" lcLookaheadLeft="2.000"/>
		<vType id="car81" tau="2.914" accel="1.000" decel="1.000" maxSpeed="19.340" carFollowModel="EIDM" emergencyDecel="5.000" sigma="1.000" lcSigma="0.720" lcSublane="0.519" lcPushy="0.417" lcAssertive="68.478" vClass="passenger" lcStrategic="999.000" maxSpeedLat="4.000" lcKeepRight="0.000" lcOvertakeRight="0.000" lcCooperative="0.825" lcLookaheadLeft="2.000"/>