<?xml version="1.0" ?>
<additional xmlns:xsi="http://www.w3.org/2001/XMLSchema-instance" xsi:noNamespaceSchemaLocation="http://sumo.dlr.de/xsd/additional_file.xsd">
	<vTypeDistribution id="car">
		<vType id="car0" tau="2.020" accel="1.157" decel="0.242" maxSpeed="8.743" carFollowModel="EIDM" sigma="0.479" lcSigma="0.321" lcSublane="0.151" lcPushy="0.765" lcAssertive="6.556" lcSpeedGainRight="0.013" vClass="passenger" lcStrategic="99.000" maxSpeedLat="3.500" lcKeepRight="0.000" lcOvertakeRight="0.000" lcCooperative="0.946" lcLookaheadLeft="28.677"/>
		<vType id="car1" tau="2.529" accel="1.157" decel="0.242" maxSpeed="8.771" carFollowModel="EIDM" sigma="0.479" lcSigma="0.321" lcSublane="0.151" lcPushy="0.765" lcAssertive="6.556" lcSpeedGainRight="0.013" vClass="passenger" lcStrategic="99.000" maxSpeedLat="3.500" lcKeepRight="0.000" lcOvertakeRight="0.000" lcCooperative="0.946" lcLookaheadLeft="28.677"/>
		<vType id="car2" tau="1.404" accel="1.157" decel="0.242" maxSpeed="8.826" carFollowModel="EIDM" sigma="0.479" lcSigma="0.321" lcSublane="0.151" lcPushy="0.765" lcAssertive="6.556" lcSpeedGainRight="0.013" vClass="passenger" lcStrategic="99.000" maxSpeedLat="3.500" lcKeepRight="0.000" lcOvertakeRight="0.000" lcCooperative="0.946" lcLookaheadLeft="28.677"/>
		<vType id="car3" tau="1.308" accel="1.157" decel="0.242" maxSpeed="8.917" carFollowModel="EIDM" sigma="0.479" lcSigma="0.321" lcSublane="0.151" lcPushy="0.765" lcAssertive="6.556" lcSpeedGainRight="0.013" vClass="passenger" lcStrategic="99.000" maxSpeedLat="3.500" lcKeepRight="0.000" lcOvertakeRight="0.000" lcCooperative="0.946" lcLookaheadLeft="28.677"/>
		<vType id="car4" tau="1.733" accel="1.157" decel="0.242" maxSpeed="8.874" carFollowModel="EIDM" sigma="0.479" lcSigma="0.321" lcSublane="0.151" lcPushy="0.765" lcAssertive="6.556" lcSpeedGainRight="0.013" vClass="passenger" lcStrategic="99.000" maxSpeedLat="3.500" lcKeepRight="0.000" lcOvertakeRight="0.000" lcCooperative="0.946" lcLookaheadLeft="28.677"/>
		<vType id="car5" tau="2.655" accel="1.157" decel="0.242" maxSpeed="8.933" carFollowModel="EIDM" sigma="0.479" lcSigma="0.321" lcSublane="0.151" lcPushy="0.765" lcAssertive="6.556" lcSpeedGainRight="0.013" vClass="passenger" lcStrategic="99.000" maxSpeedLat="3.500" lcKeepRight="0.000" lcOvertakeRight="0.000" lcCooperative="0.946" lcLookaheadLeft="28.677"/>
		<vType id="car6" tau="3.062" accel="1.157" decel="0.242" maxSpeed="8.746" carFollowModel="EIDM" sigma="0.479" lcSigma="0.321" lcSublane="0.151" lcPushy="0.765" lcAssertive="6.556" lcSpeedGainRight="0.013" vClass="passenger" lcStrategic="99.000" maxSpeedLat="3.500" lcKeepRight="0.000" lcOvertakeRight="0.000" lcCooperative="0.946" lcLookaheadLeft="28.677"/>
		<vType id="car7" tau="2.643" accel="1.157" decel="0.242" maxSpeed="8.896" carFollowModel="EIDM" sigma="0.479" lcSigma="0.321" lcSublane="0.151" lcPushy="0.765" lcAssertive="6.556" lcSpeedGainRight="0.013" vClass="passenger" lcStrategic="99.000" maxSpeedLat="3.500" lcKeepRight="0.000" lcOvertakeRight="0.000" lcCooperative="0.946" lcLookaheadLeft="28.677"/>
		<vType id="car8" tau="2.082" accel="1.157" decel="0.242" maxSpeed="8.731" carFollowModel="EIDM" sigma="0.479" lcSigma="0.321" lcSublane="0.151" lcPushy="0.765" lcAssertive="6.556" lcSpeedGainRight="0.013" vClass="passenger" lcStrategic="99.000" maxSpeedLat="3.500" lcKeepRight="0.000" lcOvertakeRight="0.000" lcCooperative="0.946" lcLookaheadLeft="28.677"/>
		<vType id="car9" tau="1.423" accel="1.157" decel="0.242" maxSpeed="8.708" carFollowModel="EIDM" sigma="0.479" lcSigma="0.321" lcSublane="0.151" lcPushy="0.765" lcAssertive="6.556" lcSpeedGainRight="0.013" vClass="passenger" lcStrategic="99.000" maxSpeedLat="3.500" lcKeepRight="0.000" lcOvertakeRight="0.000" lcCooperative="0.946" lcLookaheadLeft="28.677"/>
		<vType id="car10" tau="2.081" accel="1.157" decel="0.242" maxSpeed="8.760" carFollowModel="EIDM" sigma="0.479" lcSigma="0.321" lcSublane="0.151" lcPushy="0.765" lcAssertive="6.556" lcSpeedGainRight="0.013" vClass="passenger" lcStrategic="99.000" maxSpeedLat="3.500" lcKeepRight="0.000" lcOvertakeRight="0.000" lcCooperative="0.946" lcLookaheadLeft="28.677"/>
		<vType id="car11" tau="2.224" accel="1.157" decel="0.242" maxSpeed="8.620" carFollowModel="EIDM" sigma="0.479" lcSigma="0.321" lcSublane="0.151" lcPushy="0.765" lcAssertive="6.556" lcSpeedGainRight="0.013" vClass="passenger" lcStrategic="99.000" maxSpeedLat="3.500" lcKeepRight="0.000" lcOvertakeRight="0.000" lcCooperative="0.946" lcLookaheadLeft="28.677"/>
		<vType id="car12" tau="1.427" accel="1.157" decel="0.242" maxSpeed="8.806" carFollowModel="EIDM" sigma="0.479" lcSigma="0.321" lcSublane="0.151" lcPushy="0.765" lcAssertive="6.556" lcSpeedGainRight="0.013" vClass="passenger" lcStrategic="99.000" maxSpeedLat="3.500" lcKeepRight="0.000" lcOvertakeRight="0.000" lcCooperative="0.946" lcLookaheadLeft="28.677"/>
		<vType id="car13" tau="1.678" accel="1.157" decel="0.242" maxSpeed="8.855" carFollowModel="EIDM" sigma="0.479" lcSigma="0.321" lcSublane="0.151" lcPushy="0.765" lcAssertive="6.556" lcSpeedGainRight="0.013" vClass="passenger" lcStrategic="99.000" maxSpeedLat="3.500" lcKeepRight="0.000" lcOvertakeRight="0.000" lcCooperative="0.946" lcLookaheadLeft="28.677"/>
		<vType id="car14" tau="2.119" accel="1.157" decel="0.242" maxSpeed="8.884" carFollowModel="EIDM" sigma="0.479" lcSigma="0.321" lcSublane="0.151" lcPushy="0.765" lcAssertive="6.556" lcSpeedGainRight="0.013" vClass="passenger" lcStrategic="99.000" maxSpeedLat="3.500" lcKeepRight="0.000" lcOvertakeRight="0.000" lcCooperative="0.946" lcLookaheadLeft="28.677"/>
		<vType id="car15" tau="1.627" accel="1.157" decel="0.242" maxSpeed="8.793" carFollowModel="EIDM" sigma="0.479" lcSigma="0.321" lcSublane="0.151" lcPushy="0.765" lcAssertive="6.556" lcSpeedGainRight="0.013" vClass="passenger" lcStrategic="99.000" maxSpeedLat="3.500" lcKeepRight="0.000" lcOvertakeRight="0.000" lcCooperative="0.946" lcLookaheadLeft="28.677"/>
		<vType id="car16" tau="2.612" accel="1.157" decel="0.242" maxSpeed="8.765" carFollowModel="EIDM" sigma="0.479" lcSigma="0.321" lcSublane="0.151" lcPushy="0.765" lcAssertive="6.556" lcSpeedGainRight="0.013" vClass="passenger" lcStrategic="99.000" maxSpeedLat="3.500" lcKeepRight="0.000" lcOvertakeRight="0.000" lcCooperative="0.946" lcLookaheadLeft="28.677"/>
		<vType id="car17" tau="0.990" accel="1.157" decel="0.242" maxSpeed="8.849" carFollowModel="EIDM" sigma="0.479" lcSigma="0.321" lcSublane="0.151" lcPushy="0.765" lcAssertive="6.556" lcSpeedGainRight="0.013" vClass="passenger" lcStrategic="99.000" maxSpeedLat="3.500" lcKeepRight="0.000" lcOvertakeRight="0.000" lcCooperative="0.946" lcLookaheadLeft="28.677"/>
		<vType id="car18" tau="1.286" accel="1.157" decel="0.242" maxSpeed="8.834" carFollowModel="EIDM" sigma="0.479" lcSigma="0.321" lcSublane="0.151" lcPushy="0.765" lcAssertive="6.556" lcSpeedGainRight="0.013" vClass="passenger" lcStrategic="99.000" maxSpeedLat="3.500" lcKeepRight="0.000" lcOvertakeRight="0.000" lcCooperative="0.946" lcLookaheadLeft="28.677"/>
		<vType id="car19" tau="1.335" accel="1.157" decel="0.242" maxSpeed="8.690" carFollowModel="EIDM" sigma="0.479" lcSigma="0.321" lcSublane="0.151" lcPushy="0.765" lcAssertive="6.556" lcSpeedGainRight="0.013" vClass="passenger" lcStrategic="99.000" maxSpeedLat="3.500" lcKeepRight="0.000" lcOvertakeRight="0.000" lcCooperative="0.946" lcLookaheadLeft="28.677"/>
		<vType id="car20" tau="1.030" accel="1.157" decel="0.242" maxSpeed="8.850" carFollowModel="EIDM" sigma="0.479" lcSigma="0.321" lcSublane="0.151" lcPushy="0.765" lcAssertive="6.556" lcSpeedGainRight="0.013" vClass="passenger" lcStrategic="99.000" maxSpeedLat="3.500" lcKeepRight="0.000" lcOvertakeRight="0.000" lcCooperative="0.946" lcLookaheadLeft="28.677"/>
		<vType id="car21" tau="1.897" accel="1.157" decel="0.242" maxSpeed="8.707" carFollowModel="EIDM" sigma="0.479" lcSigma="0.321" lcSublane="0.151" lcPushy="0.765" lcAssertive="6.556" lcSpeedGainRight="0.013" vClass="passenger" lcStrategic="99.000" maxSpeedLat="3.500" lcKeepRight="0.000" lcOvertakeRight="0.000" lcCooperative="0.946" lcLookaheadLeft="28.677"/>
		<vType id="car22" tau="2.008" accel="1.157" decel="0.242" maxSpeed="8.858" carFollowModel="EIDM" sigma="0.479" lcSigma="0.321" lcSublane="0.151" lcPushy="0.765" lcAssertive="6.556" lcSpeedGainRight="0.013" vClass="passenger" lcStrategic="99.000" maxSpeedLat="3.500" lcKeepRight="0.000" lcOvertakeRight="0.000" lcCooperative="0.946" lcLookaheadLeft="28.677"/>
		<vType id="car23" tau="2.410" accel="1.157" decel="0.242" maxSpeed="8.755" carFollowModel="EIDM" sigma="0.479" lcSigma="0.321" lcSublane="0.151" lcPushy="0.765" lcAssertive="6.556" lcSpeedGainRight="0.013" vClass="passenger" lcStrategic="99.000" maxSpeedLat="3.500" lcKeepRight="0.000" lcOvertakeRight="0.000" lcCooperative="0.946" lcLookaheadLeft="28.677"/>
		<vType id="car24" tau="1.199" accel="1.157" decel="0.242" maxSpeed="8.822" carFollowModel="EIDM" sigma="0.479" lcSigma="0.321" lcSublane="0.151" lcPushy="0.765" lcAssertive="6.556" lcSpeedGainRight="0.013" vClass="passenger" lcStrategic="99.000" maxSpeedLat="3.500" lcKeepRight="0.000" lcOvertakeRight="0.000" lcCooperative="0.946" lcLookaheadLeft="28.677"/>
		<vType id="car25" tau="1.849" accel="1.157" decel="0.242" maxSpeed="8.769" carFollowModel="EIDM" sigma="0.479" lcSigma="0.321" lcSublane="0.151" lcPushy="0.765" lcAssertive="6.556" lcSpeedGainRight="0.013" vClass="passenger" lcStrategic="99.000" maxSpeedLat="3.500" lcKeepRight="0.000" lcOvertakeRight="0.000" lcCooperative="0.946" lcLookaheadLeft="28.677"/>
		<vType id="car26" tau="2.022" accel="1.157" decel="0.242" maxSpeed="8.724" carFollowModel="EIDM" sigma="0.479" lcSigma="0.321" lcSublane="0.151" lcPushy="0.765" lcAssertive="6.556" lcSpeedGainRight="0.013" vClass="passenger" lcStrategic="99.000" maxSpeedLat="3.500" lcKeepRight="0.000" lcOvertakeRight="0.000" lcCooperative="0.946" lcLookaheadLeft="28.677"/>
		<vType id="car27" tau="1.785" accel="1.157" decel="0.242" maxSpeed="8.717" carFollowModel="EIDM" sigma="0.479" lcSigma="0.321" lcSublane="0.151" lcPushy="0.765" lcAssertive="6.556" lcSpeedGainRight="0.013" vClass="passenger" lcStrategic="99.000" maxSpeedLat="3.500" lcKeepRight="0.000" lcOvertakeRight="0.000" lcCooperative="0.946" lcLookaheadLeft="28.677"/>
		<vType id="car28" tau="1.556" accel="1.157" decel="0.242" maxSpeed="8.736" carFollowModel="EIDM" sigma="0.479" lcSigma="0.321" lcSublane="0.151" lcPushy="0.765" lcAssertive="6.556" lcSpeedGainRight="0.013" vClass="passenger" lcStrategic="99.000" maxSpeedLat="3.500" lcKeepRight="0.000" lcOvertakeRight="0.000" lcCooperative="0.946" lcLookaheadLeft="28.677"/>
		<vType id="car29" tau="0.891" accel="1.157" decel="0.242" maxSpeed="8.676" carFollowModel="EIDM" sigma="0.479" lcSigma="0.321" lcSublane="0.151" lcPushy="0.765" lcAssertive="6.556" lcSpeedGainRight="0.013" vClass="passenger" lcStrategic="99.000" maxSpeedLat="3.500" lcKeepRight="0.000" lcOvertakeRight="0.000" lcCooperative="0.946" lcLookaheadLeft="28.677"/>
		<vType id="car30" tau="1.612" accel="1.157" decel="0.242" maxSpeed="8.917" carFollowModel="EIDM" sigma="0.479" lcSigma="0.321" lcSublane="0.151" lcPushy="0.765" lcAssertive="6.556" lcSpeedGainRight="0.013" vClass="passenger" lcStrategic="99.000" maxSpeedLat="3.500" lcKeepRight="0.000" lcOvertakeRight="0.000" lcCooperative="0.946" lcLookaheadLeft="28.677"/>
		<vType id="car31" tau="1.787" accel="1.157" decel="0.242" maxSpeed="8.832" carFollowModel="EIDM" sigma="0.479" lcSigma="0.321" lcSublane="0.151" lcPushy="0.765" lcAssertive="6.556" lcSpeedGainRight="0.013" vClass="passenger" lcStrategic="99.000" maxSpeedLat="3.500" lcKeepRight="0.000" lcOvertakeRight="0.000" lcCooperative="0.946" lcLookaheadLeft="28.677"/>
		<vType id="car32" tau="1.284" accel="1.157" decel="0.242" maxSpeed="8.763" carFollowModel="EIDM" sigma="0.479" lcSigma="0.321" lcSublane="0.151" lcPushy="0.765" lcAssertive="6.556" lcSpeedGainRight="0.013" vClass="passenger" lcStrategic="99.000" maxSpeedLat="3.500" lcKeepRight="0.000" lcOvertakeRight="0.000" lcCooperative="0.946" lcLookaheadLeft="28.677"/>
		<vType id="car33" tau="2.503" accel="1.157" decel="0.242" maxSpeed="8.762" carFollowModel="EIDM" sigma="0.479" lcSigma="0.321" lcSublane="0.151" lcPushy="0.765" lcAssertive="6.556" lcSpeedGainRight="0.013" vClass="passenger" lcStrategic="99.000" maxSpeedLat="3.500" lcKeepRight="0.000" lcOvertakeRight="0.000" lcCooperative="0.946" lcLookaheadLeft="28.677"/>
		<vType id="car34" tau="2.313" accel="1.157" decel="0.242" maxSpeed="8.707" carFollowModel="EIDM" sigma="0.479" lcSigma="0.321" lcSublane="0.151" lcPushy="0.765" lcAssertive="6.556" lcSpeedGainRight="0.013" vClass="passenger" lcStrategic="99.000" maxSpeedLat="3.500" lcKeepRight="0.000" lcOvertakeRight="0.000" lcCooperative="0.946" lcLookaheadLeft="28.677"/>
		<vType id="car35" tau="1.803" accel="1.157" decel="0.242" maxSpeed="8.727" carFollowModel="EIDM" sigma="0.479" lcSigma="0.321" lcSublane="0.151" lcPushy="0.765" lcAssertive="6.556" lcSpeedGainRight="0.013" vClass="passenger" lcStrategic="99.000" maxSpeedLat="3.500" lcKeepRight="0.000" lcOvertakeRight="0.000" lcCooperative="0.946" lcLookaheadLeft="28.677"/>
		<vType id="car36" tau="1.942" accel="1.157" decel="0.242" maxSpeed="8.837" carFollowModel="EIDM" sigma="0.479" lcSigma="0.321" lcSublane="0.151" lcPushy="0.765" lcAssertive="6.556" lcSpeedGainRight="0.013" vClass="passenger" lcStrategic="99.000" maxSpeedLat="3.500" lcKeepRight="0.000" lcOvertakeRight="0.000" lcCooperative="0.946" lcLookaheadLeft="28.677"/>
		<vType id="car37" tau="1.881" accel="1.157" decel="0.242" maxSpeed="8.768" carFollowModel="EIDM" sigma="0.479" lcSigma="0.321" lcSublane="0.151" lcPushy="0.765" lcAssertive="6.556" lcSpeedGainRight="0.013" vClass="passenger" lcStrategic="99.000" maxSpeedLat="3.500" lcKeepRight="0.000" lcOvertakeRight="0.000" lcCooperative="0.946" lcLookaheadLeft="28.677"/>
		<vType id="car38" tau="0.956" accel="1.157" decel="0.242" maxSpeed="8.771" carFollowModel="EIDM" sigma="0.479" lcSigma="0.321" lcSublane="0.151" lcPushy="0.765" lcAssertive="6.556" lcSpeedGainRight="0.013" vClass="passenger" lcStrategic="99.000" maxSpeedLat="3.500" lcKeepRight="0.000" lcOvertakeRight="0.000" lcCooperative="0.946" lcLookaheadLeft="28.677"/>
		<vType id="car39" tau="2.068" accel="1.157" decel="0.242" maxSpeed="8.716" carFollowModel="EIDM" sigma="0.479" lcSigma="0.321" lcSublane="0.151" lcPushy="0.765" lcAssertive="6.556" lcSpeedGainRight="0.013" vClass="passenger" lcStrategic="99.000" maxSpeedLat="3.500" lcKeepRight="0.000" lcOvertakeRight="0.000" lcCooperative="0.946" lcLookaheadLeft="28.677"/>
		<vType id="car40" tau="2.041" accel="1.157" decel="0.242" maxSpeed="8.640" carFollowModel="EIDM" sigma="0.479" lcSigma="0.321" lcSublane="0.151" lcPushy="0.765" lcAssertive="6.556" lcSpeedGainRight="0.013" vClass="passenger" lcStrategic="99.000" maxSpeedLat="3.500" lcKeepRight="0.000" lcOvertakeRight="0.000" lcCooperative="0.946" lcLookaheadLeft="28.677"/>
		<vType id="car41" tau="1.913" accel="1.157" decel="0.242" maxSpeed="8.713" carFollowModel="EIDM" sigma="0.479" lcSigma="0.321" lcSublane="0.151" lcPushy="0.765" lcAssertive="6.556" lcSpeedGainRight="0.013" vClass="passenger" lcStrategic="99.000" maxSpeedLat="3.500" lcKeepRight="0.000" lcOvertakeRight="0.000" lcCooperative="0.946" lcLookaheadLeft="28.677"/>
		<vType id="car42" tau="2.150" accel="1.157" decel="0.242" maxSpeed="8.742" carFollowModel="EIDM" sigma="0.479" lcSigma="0.321" lcSublane="0.151" lcPushy="0.765" lcAssertive="6.556" lcSpeedGainRight="0.013" vClass="passenger" lcStrategic="99.000" maxSpeedLat="3.500" lcKeepRight="0.000" lcOvertakeRight="0.000" lcCooperative="0.946" lcLookaheadLeft="28.677"/>
		<vType id="car43" tau="2.344" accel="1.157" decel="0.242" maxSpeed="8.815" carFollowModel="EIDM" sigma="0.479" lcSigma="0.321" lcSublane="0.151" lcPushy="0.765" lcAssertive="6.556" lcSpeedGainRight="0.013" vClass="passenger" lcStrategic="99.000" maxSpeedLat="3.500" lcKeepRight="0.000" lcOvertakeRight="0.000" lcCooperative="0.946" lcLookaheadLeft="28.677"/>
		<vType id="car44" tau="1.729" accel="1.157" decel="0.242" maxSpeed="8.828" carFollowModel="EIDM" sigma="0.479" lcSigma="0.321" lcSublane="0.151" lcPushy="0.765" lcAssertive="6.556" lcSpeedGainRight="0.013" vClass="passenger" lcStrategic="99.000" maxSpeedLat="3.500" lcKeepRight="0.000" lcOvertakeRight="0.000" lcCooperative="0.946" lcLookaheadLeft="28.677"/>
		<vType id="car45" tau="0.995" accel="1.157" decel="0.242" maxSpeed="8.724" carFollowModel="EIDM" sigma="0.479" lcSigma="0.321" lcSublane="0.151" lcPushy="0.765" lcAssertive="6.556" lcSpeedGainRight="0.013" vClass="passenger" lcStrategic="99.000" maxSpeedLat="3.500" lcKeepRight="0.000" lcOvertakeRight="0.000" lcCooperative="0.946" lcLookaheadLeft="28.677"/>
		<vType id="car46" tau="2.109" accel="1.157" decel="0.242" maxSpeed="8.683" carFollowModel="EIDM" sigma="0.479" lcSigma="0.321" lcSublane="0.151" lcPushy="0.765" lcAssertive="6.556" lcSpeedGainRight="0.013" vClass="passenger" lcStrategic="99.000" maxSpeedLat="3.500" lcKeepRight="0.000" lcOvertakeRight="0.000" lcCooperative="0.946" lcLookaheadLeft="28.677"/>
		<vType id="car47" tau="1.214" accel="1.157" decel="0.242" maxSpeed="8.709" carFollowModel="EIDM" sigma="0.479" lcSigma="0.321" lcSublane="0.151" lcPushy="0.765" lcAssertive="6.556" lcSpeedGainRight="0.013" vClass="passenger" lcStrategic="99.000" maxSpeedLat="3.500" lcKeepRight="0.000" lcOvertakeRight="0.000" lcCooperative="0.946" lcLookaheadLeft="28.677"/>
		<vType id="car48" tau="1.762" accel="1.157" decel="0.242" maxSpeed="8.932" carFollowModel="EIDM" sigma="0.479" lcSigma="0.321" lcSublane="0.151" lcPushy="0.765" lcAssertive="6.556" lcSpeedGainRight="0.013" vClass="passenger" lcStrategic="99.000" maxSpeedLat="3.500" lcKeepRight="0.000" lcOvertakeRight="0.000" lcCooperative="0.946" lcLookaheadLeft="28.677"/>
		<vType id="car49" tau="2.288" accel="1.157" decel="0.242" maxSpeed="8.665" carFollowModel="EIDM" sigma="0.479" lcSigma="0.321" lcSublane="0.151" lcPushy="0.765" lcAssertive="6.556" lcSpeedGainRight="0.013" vClass="passenger" lcStrategic="99.000" maxSpeedLat="3.500" lcKeepRight="0.000" lcOvertakeRight="0.000" lcCooperative="0.946" lcLookaheadLeft="28.677"/>
		<vType id="car50" tau="1.398" accel="1.157" decel="0.242" maxSpeed="8.818" carFollowModel="EIDM" sigma="0.479" lcSigma="0.321" lcSublane="0.151" lcPushy="0.765" lcAssertive="6.556" lcSpeedGainRight="0.013" vClass="passenger" lcStrategic="99.000" maxSpeedLat="3.500" lcKeepRight="0.000" lcOvertakeRight="0.000" lcCooperative="0.946" lcLookaheadLeft="28.677"/>
		<vType id="car51" tau="2.054" accel="1.157" decel="0.242" maxSpeed="8.766" carFollowModel="EIDM" sigma="0.479" lcSigma="0.321" lcSublane="0.151" lcPushy="0.765" lcAssertive="6.556" lcSpeedGainRight="0.013" vClass="passenger" lcStrategic="99.000" maxSpeedLat="3.500" lcKeepRight="0.000" lcOvertakeRight="0.000" lcCooperative="0.946" lcLookaheadLeft="28.677"/>
		<vType id="car52" tau="1.805" accel="1.157" decel="0.242" maxSpeed="8.807" carFollowModel="EIDM" sigma="0.479" lcSigma="0.321" lcSublane="0.151" lcPushy="0.765" lcAssertive="6.556" lcSpeedGainRight="0.013" vClass="passenger" lcStrategic="99.000" maxSpeedLat="3.500" lcKeepRight="0.000" lcOvertakeRight="0.000" lcCooperative="0.946" lcLookaheadLeft="28.677"/>
		<vType id="car53" tau="2.362" accel="1.157" decel="0.242" maxSpeed="8.772" carFollowModel="EIDM" sigma="0.479" lcSigma="0.321" lcSublane="0.151" lcPushy="0.765" lcAssertive="6.556" lcSpeedGainRight="0.013" vClass="passenger" lcStrategic="99.000" maxSpeedLat="3.500" lcKeepRight="0.000" lcOvertakeRight="0.000" lcCooperative="0.946" lcLookaheadLeft="28.677"/>
		<vType id="car54" tau="2.665" accel="1.157" decel="0.242" maxSpeed="8.889" carFollowModel="EIDM" sigma="0.479" lcSigma="0.321" lcSublane="0.151" lcPushy="0.765" lcAssertive="6.556" lcSpeedGainRight="0.013" vClass="passenger" lcStrategic="99.000" maxSpeedLat="3.500" lcKeepRight="0.000" lcOvertakeRight="0.000" lcCooperative="0.946" lcLookaheadLeft="28.677"/>
		<vType id="car55" tau="1.548" accel="1.157" decel="0.242" maxSpeed="8.849" carFollowModel="EIDM" sigma="0.479" lcSigma="0.321" lcSublane="0.151" lcPushy="0.765" lcAssertive="6.556" lcSpeedGainRight="0.013" vClass="passenger" lcStrategic="99.000" maxSpeedLat="3.500" lcKeepRight="0.000" lcOvertakeRight="0.000" lcCooperative="0.946" lcLookaheadLeft="28.677"/>
		<vType id="car56" tau="1.655" accel="1.157" decel="0.242" maxSpeed="8.749" carFollowModel="EIDM" sigma="0.479" lcSigma="0.321" lcSublane="0.151" lcPushy="0.765" lcAssertive="6.556" lcSpeedGainRight="0.013" vClass="passenger" lcStrategic="99.000" maxSpeedLat="3.500" lcKeepRight="0.000" lcOvertakeRight="0.000" lcCooperative="0.946" lcLookaheadLeft="28.677"/>
		<vType id="car57" tau="2.263" accel="1.157" decel="0.242" maxSpeed="8.825" carFollowModel="EIDM" sigma="0.479" lcSigma="0.321" lcSublane="0.151" lcPushy="0.765" lcAssertive="6.556" lcSpeedGainRight="0.013" vClass="passenger" lcStrategic="99.000" maxSpeedLat="3.500" lcKeepRight="0.000" lcOvertakeRight="0.000" lcCooperative="0.946" lcLookaheadLeft="28.677"/>
		<vType id="car58" tau="0.588" accel="1.157" decel="0.242" maxSpeed="8.774" carFollowModel="EIDM" sigma="0.479" lcSigma="0.321" lcSublane="0.151" lcPushy="0.765" lcAssertive="6.556" lcSpeedGainRight="0.013" vClass="passenger" lcStrategic="99.000" maxSpeedLat="3.500" lcKeepRight="0.000" lcOvertakeRight="0.000" lcCooperative="0.946" lcLookaheadLeft="28.677"/>
		<vType id="car59" tau="2.227" accel="1.157" decel="0.242" maxSpeed="8.613" carFollowModel="EIDM" sigma="0.479" lcSigma="0.321" lcSublane="0.151" lcPushy="0.765" lcAssertive="6.556" lcSpeedGainRight="0.013" vClass="passenger" lcStrategic="99.000" maxSpeedLat="3.500" lcKeepRight="0.000" lcOvertakeRight="0.000" lcCooperative="0.946" lcLookaheadLeft="28.677"/>
		<vType id="car60" tau="2.457" accel="1.157" decel="0.242" maxSpeed="8.813" carFollowModel="EIDM" sigma="0.479" lcSigma="0.321" lcSublane="0.151" lcPushy="0.765" lcAssertive="6.556" lcSpeedGainRight="0.013" vClass="passenger" lcStrategic="99.000" maxSpeedLat="3.500" lcKeepRight="0.000" lcOvertakeRight="0.000" lcCooperative="0.946" lcLookaheadLeft="28.677"/>
		<vType id="car61" tau="2.441" accel="1.157" decel="0.242" maxSpeed="8.689" carFollowModel="EIDM" sigma="0.479" lcSigma="0.321" lcSublane="0.151" lcPushy="0.765" lcAssertive="6.556" lcSpeedGainRight="0.013" vClass="passenger" lcStrategic="99.000" maxSpeedLat="3.500" lcKeepRight="0.000" lcOvertakeRight="0.000" lcCooperative="0.946" lcLookaheadLeft="28.677"/>
		<vType id="car62" tau="2.184" accel="1.157" decel="0.242" maxSpeed="8.811" carFollowModel="EIDM" sigma="0.479" lcSigma="0.321" lcSublane="0.151" lcPushy="0.765" lcAssertive="6.556" lcSpeedGainRight="0.013" vClass="passenger" lcStrategic="99.000" maxSpeedLat="3.500" lcKeepRight="0.000" lcOvertakeRight="0.000" lcCooperative="0.946" lcLookaheadLeft="28.677"/>
		<vType id="car63" tau="1.662" accel="1.157" decel="0.242" maxSpeed="8.670" carFollowModel="EIDM" sigma="0.479" lcSigma="0.321" lcSublane="0.151" lcPushy="0.765" lcAssertive="6.556" lcSpeedGainRight="0.013" vClass="passenger" lcStrategic="99.000" maxSpeedLat="3.500" lcKeepRight="0.000" lcOvertakeRight="0.000" lcCooperative="0.946" lcLookaheadLeft="28.677"/>
		<vType id="car64" tau="2.015" accel="1.157" decel="0.242" maxSpeed="8.880" carFollowModel="EIDM" sigma="0.479" lcSigma="0.321" lcSublane="0.151" lcPushy="0.765" lcAssertive="6.556" lcSpeedGainRight="0.013" vClass="passenger" lcStrategic="99.000" maxSpeedLat="3.500" lcKeepRight="0.000" lcOvertakeRight="0.000" lcCooperative="0.946" lcLookaheadLeft="28.677"/>
		<vType id="car65" tau="1.770" accel="1.157" decel="0.242" maxSpeed="8.814" carFollowModel="EIDM" sigma="0.479" lcSigma="0.321" lcSublane="0.151" lcPushy="0.765" lcAssertive="6.556" lcSpeedGainRight="0.013" vClass="passenger" lcStrategic="99.000" maxSpeedLat="3.500" lcKeepRight="0.000" lcOvertakeRight="0.000" lcCooperative="0.946" lcLookaheadLeft="28.677"/>
		<vType id="car66" tau="0.837" accel="1.157" decel="0.242" maxSpeed="8.824" carFollowModel="EIDM" sigma="0.479" lcSigma="0.321" lcSublane="0.151" lcPushy="0.765" lcAssertive="6.556" lcSpeedGainRight="0.013" vClass="passenger" lcStrategic="99.000" maxSpeedLat="3.500" lcKeepRight="0.000" lcOvertakeRight="0.000" lcCooperative="0.946" lcLookaheadLeft="28.677"/>
		<vType id="car67" tau="1.618" accel="1.157" decel="0.242" maxSpeed="8.763" carFollowModel="EIDM" sigma="0.479" lcSigma="0.321" lcSublane="0.151" lcPushy="0.765" lcAssertive="6.556" lcSpeedGainRight="0.013" vClass="passenger" lcStrategic="99.000" maxSpeedLat="3.500" lcKeepRight="0.000" lcOvertakeRight="0.000" lcCooperative="0.946" lcLookaheadLeft="28.677"/>
		<vType id="car68" tau="1.340" accel="1.157" decel="0.242" maxSpeed="8.921" carFollowModel="EIDM" sigma="0.479" lcSigma="0.321" lcSublane="0.151" lcPushy="0.765" lcAssertive="6.556" lcSpeedGainRight="0.013" vClass="passenger" lcStrategic="99.000" maxSpeedLat="3.500" lcKeepRight="0.000" lcOvertakeRight="0.000" lcCooperative="0.946" lcLookaheadLeft="28.677"/>
		<vType id="car69" tau="1.516" accel="1.157" decel="0.242" maxSpeed="8.760" carFollowModel="EIDM" sigma="0.479" lcSigma="0.321" lcSublane="0.151" lcPushy="0.765" lcAssertive="6.556" lcSpeedGainRight="0.013" vClass="passenger" lcStrategic="99.000" maxSpeedLat="3.500" lcKeepRight="0.000" lcOvertakeRight="0.000" lcCooperative="0.946" lcLookaheadLeft="28.677"/>
		<vType id="car70" tau="2.147" accel="1.157" decel="0.242" maxSpeed="8.772" carFollowModel="EIDM" sigma="0.479" lcSigma="0.321" lcSublane="0.151" lcPushy="0.765" lcAssertive="6.556" lcSpeedGainRight="0.013" vClass="passenger" lcStrategic="99.000" maxSpeedLat="3.500" lcKeepRight="0.000" lcOvertakeRight="0.000" lcCooperative="0.946" lcLookaheadLeft="28.677"/>
		<vType id="car71" tau="1.662" accel="1.157" decel="0.242" maxSpeed="8.829" carFollowModel="EIDM" sigma="0.479" lcSigma="0.321" lcSublane="0.151" lcPushy="0.765" lcAssertive="6.556" lcSpeedGainRight="0.013" vClass="passenger" lcStrategic="99.000" maxSpeedLat="3.500" lcKeepRight="0.000" lcOvertakeRight="0.000" lcCooperative="0.946" lcLookaheadLeft="28.677"/>
		<vType id="car72" tau="1.155" accel="1.157" decel="0.242" maxSpeed="8.808" carFollowModel="EIDM" sigma="0.479" lcSigma="0.321" lcSublane="0.151" lcPushy="0.765" lcAssertive="6.556" lcSpeedGainRight="0.013" vClass="passenger" lcStrategic="99.000" maxSpeedLat="3.500" lcKeepRight="0.000" lcOvertakeRight="0.000" lcCooperative="0.946" lcLookaheadLeft="28.677"/>
		<vType id="car73" tau="3.003" accel="1.157" decel="0.242" maxSpeed="8.811" carFollowModel="EIDM" sigma="0.479" lcSigma="0.321" lcSublane="0.151" lcPushy="0.765" lcAssertive="6.556" lcSpeedGainRight="0.013" vClass="passenger" lcStrategic="99.000" maxSpeedLat="3.500" lcKeepRight="0.000" lcOvertakeRight="0.000" lcCooperative="0.946" lcLookaheadLeft="28.677"/>
		<vType id="car74" tau="1.476" accel="1.157" decel="0.242" maxSpeed="8.751" carFollowModel="EIDM" sigma="0.479" lcSigma="0.321" lcSublane="0.151" lcPushy="0.765" lcAssertive="6.556" lcSpeedGainRight="0.013" vClass="passenger" lcStrategic="99.000" maxSpeedLat="3.500" lcKeepRight="0.000" lcOvertakeRight="0.000" lcCooperative="0.946" lcLookaheadLeft="28.677"/>
		<vType id="car75" tau="1.026" accel="1.157" decel="0.242" maxSpeed="8.781" carFollowModel="EIDM" sigma="0.479" lcSigma="0.321" lcSublane="0.151" lcPushy="0.765" lcAssertive="6.556" lcSpeedGainRight="0.013" vClass="passenger" lcStrategic="99.000" maxSpeedLat="3.500" lcKeepRight="0.000" lcOvertakeRight="0.000" lcCooperative="0.946" lcLookaheadLeft="28.677"/>
		<vType id="car76" tau="2.840" accel="1.157" decel="0.242" maxSpeed="8.691" carFollowModel="EIDM" sigma="0.479" lcSigma="0.321" lcSublane="0.151" lcPushy="0.765" lcAssertive="6.556" lcSpeedGainRight="0.013" vClass="passenger" lcStrategic="99.000" maxSpeedLat="3.500" lcKeepRight="0.000" lcOvertakeRight="0.000" lcCooperative="0.946" lcLookaheadLeft="28.677"/>
		<vType id="car77" tau="1.913" accel="1.157" decel="0.242" maxSpeed="8.753" carFollowModel="EIDM" sigma="0.479" lcSigma="0.321" lcSublane="0.151" lcPushy="0.765" lcAssertive="6.556" lcSpeedGainRight="0.013" vClass="passenger" lcStrategic="99.000" maxSpeedLat="3.500" lcKeepRight="0.000" lcOvertakeRight="0.000" lcCooperative="0.946" lcLookaheadLeft="28.677"/>
		<vType id="car78" tau="3.549" accel="1.157" decel="0.242" maxSpeed="8.916" carFollowModel="EIDM" sigma="0.479" lcSigma="0.321" lcSublane="0.151" lcPushy="0.765" lcAssertive="6.556" lcSpeedGainRight="0.013" vClass="passenger" lcStrategic="99.000" maxSpeedLat="3.500" lcKeepRight="0.000" lcOvertakeRight="0.000" lcCooperative="0.946" lcLookaheadLeft="28.677"/>
		<vType id="car79" tau="2.279" accel="1.157" decel="0.242" maxSpeed="8.879" carFollowModel="EIDM" sigma="0.479" lcSigma="0.321" lcSublane="0.151" lcPushy="0.765" lcAssertive="6.556" lcSpeedGainRight="0.013" vClass="passenger" lcStrategic="99.000" maxSpeedLat="3.500" lcKeepRight="0.000" lcOvertakeRight="0.000" lcCooperative="0.946" lcLookaheadLeft="28.677"/>
		<vType id="car80" tau="1.867" accel="1.157" decel="0.242" maxSpeed="8.689" carFollowModel="EIDM" sigma="0.479" lcSigma="0.321" lcSublane="0.151" lcPushy="0.765" lcAssertive="6.556" lcSpeedGainRight="0.013" vClass="passenger" lcStrategic="99.000" maxSpeedLat="3.500" lcKeepRight="0.000" lcOvertakeRight="0.000" lcCooperative="0.946" lcLookaheadLeft="28.677"/>
		<vType id="car81" tau="2.377" accel="1.157" decel="0.242" maxSpeed="8.805" carFollowModel="EIDM" sigma="0.479" lcSigma="0.321" lcSublane="0.151" lcPushy="0.765" lcAssertive="6.556" lcSpeedGainRight="0.013" vClass="passenger" lcStrategic="99.000" maxSpeedLat="3.500" lcKeepRight="0.000" lcOvertakeRight="0.000" lcCooperative="0.946" lcLookaheadLeft="28.677"/>