<?xml version="1.0" ?>
<additional xmlns:xsi="http://www.w3.org/2001/XMLSchema-instance" xsi:noNamespaceSchemaLocation="http://sumo.dlr.de/xsd/additional_file.xsd">
	<vTypeDistribution id="car">
		<vType accel="3.678" carFollowModel="EIDM" decel="3.062" id="car0" lcAssertive="1.311" lcCooperative="0.438" lcKeepRight="0.000" lcLookaheadLeft="14.010" lcOvertakeRight="0.000" lcPushy="0.527" lcSigma="0.980" lcSpeedGainRight="2.496" lcStrategic="99.000" lcSublane="0.375" maxSpeed="10.949" maxSpeedLat="3.500" sigma="0.814" tau="4.593" vClass="passenger"/>
		<vType accel="3.678" carFollowModel="EIDM" decel="3.062" id="car1" lcAssertive="1.311" lcCooperative="0.438" lcKeepRight="0.000" lcLookaheadLeft="14.010" lcOvertakeRight="0.000" lcPushy="0.527" lcSigma="0.980" lcSpeedGainRight="2.496" lcStrategic="99.000" lcSublane="0.375" maxSpeed="14.383" maxSpeedLat="3.500" sigma="0.814" tau="3.492" vClass="passenger"/>
		<vType accel="3.678" carFollowModel="EIDM" decel="3.062" id="car2" lcAssertive="1.311" lcCooperative="0.438" lcKeepRight="0.000" lcLookaheadLeft="14.010" lcOvertakeRight="0.000" lcPushy="0.527" lcSigma="0.980" lcSpeedGainRight="2.496" lcStrategic="99.000" lcSublane="0.375" maxSpeed="28.176" maxSpeedLat="3.500" sigma="0.814" tau="2.553" vClass="passenger"/>
		<vType accel="3.678" carFollowModel="EIDM" decel="3.062" id="car3" lcAssertive="1.311" lcCooperative="0.438" lcKeepRight="0.000" lcLookaheadLeft="14.010" lcOvertakeRight="0.000" lcPushy="0.527" lcSigma="0.980" lcSpeedGainRight="2.496" lcStrategic="99.000" lcSublane="0.375" maxSpeed="28.149" maxSpeedLat="3.500" sigma="0.814" tau="2.003" vClass="passenger"/>
		<vType accel="3.678" carFollowModel="EIDM" decel="3.062" id="car4" lcAssertive="1.311" lcCooperative="0.438" lcKeepRight="0.000" lcLookaheadLeft="14.010" lcOvertakeRight="0.000" lcPushy="0.527" lcSigma="0.980" lcSpeedGainRight="2.496" lcStrategic="99.000" lcSublane="0.375" maxSpeed="27.020" maxSpeedLat="3.500" sigma="0.814" tau="3.080" vClass="passenger"/>
		<vType accel="3.678" carFollowModel="EIDM" decel="3.062" id="car5" lcAssertive="1.311" lcCooperative="0.438" lcKeepRight="0.000" lcLookaheadLeft="14.010" lcOvertakeRight="0.000" lcPushy="0.527" lcSigma="0.980" lcSpeedGainRight="2.496" lcStrategic="99.000" lcSublane="0.375" maxSpeed="29.638" maxSpeedLat="3.500" sigma="0.814" tau="2.647" vClass="passenger"/>
		<vType accel="3.678" carFollowModel="EIDM" decel="3.062" id="car6" lcAssertive="1.311" lcCooperative="0.438" lcKeepRight="0.000" lcLookaheadLeft="14.010" lcOvertakeRight="0.000" lcPushy="0.527" lcSigma="0.980" lcSpeedGainRight="2.496" lcStrategic="99.000" lcSublane="0.375" maxSpeed="23.693" maxSpeedLat="3.500" sigma="0.814" tau="2.351" vClass="passenger"/>
		<vType accel="3.678" carFollowModel="EIDM" decel="3.062" id="car7" lcAssertive="1.311" lcCooperative="0.438" lcKeepRight="0.000" lcLookaheadLeft="14.010" lcOvertakeRight="0.000" lcPushy="0.527" lcSigma="0.980" lcSpeedGainRight="2.496" lcStrategic="99.000" lcSublane="0.375" maxSpeed="20.872" maxSpeedLat="3.500" sigma="0.814" tau="3.254" vClass="passenger"/>
		<vType accel="3.678" carFollowModel="EIDM" decel="3.062" id="car8" lcAssertive="1.311" lcCooperative="0.438" lcKeepRight="0.000" lcLookaheadLeft="14.010" lcOvertakeRight="0.000" lcPushy="0.527" lcSigma="0.980" lcSpeedGainRight="2.496" lcStrategic="99.000" lcSublane="0.375" maxSpeed="25.244" maxSpeedLat="3.500" sigma="0.814" tau="1.139" vClass="passenger"/>
		<vType accel="3.678" carFollowModel="EIDM" decel="3.062" id="car9" lcAssertive="1.311" lcCooperative="0.438" lcKeepRight="0.000" lcLookaheadLeft="14.010" lcOvertakeRight="0.000" lcPushy="0.527" lcSigma="0.980" lcSpeedGainRight="2.496" lcStrategic="99.000" lcSublane="0.375" maxSpeed="18.971" maxSpeedLat="3.500" sigma="0.814" tau="2.882" vClass="passenger"/>
		<vType accel="3.678" carFollowModel="EIDM" decel="3.062" id="car10" lcAssertive="1.311" lcCooperative="0.438" lcKeepRight="0.000" lcLookaheadLeft="14.010" lcOvertakeRight="0.000" lcPushy="0.527" lcSigma="0.980" lcSpeedGainRight="2.496" lcStrategic="99.000" lcSublane="0.375" maxSpeed="25.821" maxSpeedLat="3.500" sigma="0.814" tau="3.408" vClass="passenger"/>
		<vType accel="3.678" carFollowModel="EIDM" decel="3.062" id="car11" lcAssertive="1.311" lcCooperative="0.438" lcKeepRight="0.000" lcLookaheadLeft="14.010" lcOvertakeRight="0.000" lcPushy="0.527" lcSigma="0.980" lcSpeedGainRight="2.496" lcStrategic="99.000" lcSublane="0.375" maxSpeed="16.463" maxSpeedLat="3.500" sigma="0.814" tau="1.750" vClass="passenger"/>
		<vType accel="3.678" carFollowModel="EIDM" decel="3.062" id="car12" lcAssertive="1.311" lcCooperative="0.438" lcKeepRight="0.000" lcLookaheadLeft="14.010" lcOvertakeRight="0.000" lcPushy="0.527" lcSigma="0.980" lcSpeedGainRight="2.496" lcStrategic="99.000" lcSublane="0.375" maxSpeed="7.406" maxSpeedLat="3.500" sigma="0.814" tau="1.481" vClass="passenger"/>
		<vType accel="3.678" carFollowModel="EIDM" decel="3.062" id="car13" lcAssertive="1.311" lcCooperative="0.438" lcKeepRight="0.000" lcLookaheadLeft="14.010" lcOvertakeRight="0.000" lcPushy="0.527" lcSigma="0.980" lcSpeedGainRight="2.496" lcStrategic="99.000" lcSublane="0.375" maxSpeed="9.592" maxSpeedLat="3.500" sigma="0.814" tau="2.184" vClass="passenger"/>
		<vType accel="3.678" carFollowModel="EIDM" decel="3.062" id="car14" lcAssertive="1.311" lcCooperative="0.438" lcKeepRight="0.000" lcLookaheadLeft="14.010" lcOvertakeRight="0.000" lcPushy="0.527" lcSigma="0.980" lcSpeedGainRight="2.496" lcStrategic="99.000" lcSublane="0.375" maxSpeed="15.947" maxSpeedLat="3.500" sigma="0.814" tau="3.264" vClass="passenger"/>
		<vType accel="3.678" carFollowModel="EIDM" decel="3.062" id="car15" lcAssertive="1.311" lcCooperative="0.438" lcKeepRight="0.000" lcLookaheadLeft="14.010" lcOvertakeRight="0.000" lcPushy="0.527" lcSigma="0.980" lcSpeedGainRight="2.496" lcStrategic="99.000" lcSublane="0.375" maxSpeed="17.147" maxSpeedLat="3.500" sigma="0.814" tau="3.163" vClass="passenger"/>
		<vType accel="3.678" carFollowModel="EIDM" decel="3.062" id="car16" lcAssertive="1.311" lcCooperative="0.438" lcKeepRight="0.000" lcLookaheadLeft="14.010" lcOvertakeRight="0.000" lcPushy="0.527" lcSigma="0.980" lcSpeedGainRight="2.496" lcStrategic="99.000" lcSublane="0.375" maxSpeed="22.660" maxSpeedLat="3.500" sigma="0.814" tau="1.868" vClass="passenger"/>
		<vType accel="3.678" carFollowModel="EIDM" decel="3.062" id="car17" lcAssertive="1.311" lcCooperative="0.438" lcKeepRight="0.000" lcLookaheadLeft="14.010" lcOvertakeRight="0.000" lcPushy="0.527" lcSigma="0.980" lcSpeedGainRight="2.496" lcStrategic="99.000" lcSublane="0.375" maxSpeed="17.255" maxSpeedLat="3.500" sigma="0.814" tau="3.799" vClass="passenger"/>
		<vType accel="3.678" carFollowModel="EIDM" decel="3.062" id="car18" lcAssertive="1.311" lcCooperative="0.438" lcKeepRight="0.000" lcLookaheadLeft="14.010" lcOvertakeRight="0.000" lcPushy="0.527" lcSigma="0.980" lcSpeedGainRight="2.496" lcStrategic="99.000" lcSublane="0.375" maxSpeed="27.617" maxSpeedLat="3.500" sigma="0.814" tau="3.505" vClass="passenger"/>
		<vType accel="3.678" carFollowModel="EIDM" decel="3.062" id="car19" lcAssertive="1.311" lcCooperative="0.438" lcKeepRight="0.000" lcLookaheadLeft="14.010" lcOvertakeRight="0.000" lcPushy="0.527" lcSigma="0.980" lcSpeedGainRight="2.496" lcStrategic="99.000" lcSublane="0.375" maxSpeed="26.570" maxSpeedLat="3.500" sigma="0.814" tau="1.471" vClass="passenger"/>
		<vType accel="3.678" carFollowModel="EIDM" decel="3.062" id="car20" lcAssertive="1.311" lcCooperative="0.438" lcKeepRight="0.000" lcLookaheadLeft="14.010" lcOvertakeRight="0.000" lcPushy="0.527" lcSigma="0.980" lcSpeedGainRight="2.496" lcStrategic="99.000" lcSublane="0.375" maxSpeed="10.565" maxSpeedLat="3.500" sigma="0.814" tau="3.984" vClass="passenger"/>
		<vType accel="3.678" carFollowModel="EIDM" decel="3.062" id="car21" lcAssertive="1.311" lcCooperative="0.438" lcKeepRight="0.000" lcLookaheadLeft="14.010" lcOvertakeRight="0.000" lcPushy="0.527" lcSigma="0.980" lcSpeedGainRight="2.496" lcStrategic="99.000" lcSublane="0.375" maxSpeed="6.066" maxSpeedLat="3.500" sigma="0.814" tau="2.933" vClass="passenger"/>
		<vType accel="3.678" carFollowModel="EIDM" decel="3.062" id="car22" lcAssertive="1.311" lcCooperative="0.438" lcKeepRight="0.000" lcLookaheadLeft="14.010" lcOvertakeRight="0.000" lcPushy="0.527" lcSigma="0.980" lcSpeedGainRight="2.496" lcStrategic="99.000" lcSublane="0.375" maxSpeed="15.553" maxSpeedLat="3.500" sigma="0.814" tau="0.240" vClass="passenger"/>
		<vType accel="3.678" carFollowModel="EIDM" decel="3.062" id="car23" lcAssertive="1.311" lcCooperative="0.438" lcKeepRight="0.000" lcLookaheadLeft="14.010" lcOvertakeRight="0.000" lcPushy="0.527" lcSigma="0.980" lcSpeedGainRight="2.496" lcStrategic="99.000" lcSublane="0.375" maxSpeed="27.082" maxSpeedLat="3.500" sigma="0.814" tau="1.051" vClass="passenger"/>
		<vType accel="3.678" carFollowModel="EIDM" decel="3.062" id="car24" lcAssertive="1.311" lcCooperative="0.438" lcKeepRight="0.000" lcLookaheadLeft="14.010" lcOvertakeRight="0.000" lcPushy="0.527" lcSigma="0.980" lcSpeedGainRight="2.496" lcStrategic="99.000" lcSublane="0.375" maxSpeed="17.237" maxSpeedLat="3.500" sigma="0.814" tau="3.292" vClass="passenger"/>
		<vType accel="3.678" carFollowModel="EIDM" decel="3.062" id="car25" lcAssertive="1.311" lcCooperative="0.438" lcKeepRight="0.000" lcLookaheadLeft="14.010" lcOvertakeRight="0.000" lcPushy="0.527" lcSigma="0.980" lcSpeedGainRight="2.496" lcStrategic="99.000" lcSublane="0.375" maxSpeed="18.352" maxSpeedLat="3.500" sigma="0.814" tau="4.804" vClass="passenger"/>
		<vType accel="3.678" carFollowModel="EIDM" decel="3.062" id="car26" lcAssertive="1.311" lcCooperative="0.438" lcKeepRight="0.000" lcLookaheadLeft="14.010" lcOvertakeRight="0.000" lcPushy="0.527" lcSigma="0.980" lcSpeedGainRight="2.496" lcStrategic="99.000" lcSublane="0.375" maxSpeed="11.307" maxSpeedLat="3.500" sigma="0.814" tau="1.902" vClass="passenger"/>
		<vType accel="3.678" carFollowModel="EIDM" decel="3.062" id="car27" lcAssertive="1.311" lcCooperative="0.438" lcKeepRight="0.000" lcLookaheadLeft="14.010" lcOvertakeRight="0.000" lcPushy="0.527" lcSigma="0.980" lcSpeedGainRight="2.496" lcStrategic="99.000" lcSublane="0.375" maxSpeed="18.895" maxSpeedLat="3.500" sigma="0.814" tau="2.673" vClass="passenger"/>
		<vType accel="3.678" carFollowModel="EIDM" decel="3.062" id="car28" lcAssertive="1.311" lcCooperative="0.438" lcKeepRight="0.000" lcLookaheadLeft="14.010" lcOvertakeRight="0.000" lcPushy="0.527" lcSigma="0.980" lcSpeedGainRight="2.496" lcStrategic="99.000" lcSublane="0.375" maxSpeed="28.278" maxSpeedLat="3.500" sigma="0.814" tau="0.477" vClass="passenger"/>
		<vType accel="3.678" carFollowModel="EIDM" decel="3.062" id="car29" lcAssertive="1.311" lcCooperative="0.438" lcKeepRight="0.000" lcLookaheadLeft="14.010" lcOvertakeRight="0.000" lcPushy="0.527" lcSigma="0.980" lcSpeedGainRight="2.496" lcStrategic="99.000" lcSublane="0.375" maxSpeed="25.532" maxSpeedLat="3.500" sigma="0.814" tau="2.553" vClass="passenger"/>
		<vType accel="3.678" carFollowModel="EIDM" decel="3.062" id="car30" lcAssertive="1.311" lcCooperative="0.438" lcKeepRight="0.000" lcLookaheadLeft="14.010" lcOvertakeRight="0.000" lcPushy="0.527" lcSigma="0.980" lcSpeedGainRight="2.496" lcStrategic="99.000" lcSublane="0.375" maxSpeed="29.229" maxSpeedLat="3.500" sigma="0.814" tau="3.170" vClass="passenger"/>
		<vType accel="3.678" carFollowModel="EIDM" decel="3.062" id="car31" lcAssertive="1.311" lcCooperative="0.438" lcKeepRight="0.000" lcLookaheadLeft="14.010" lcOvertakeRight="0.000" lcPushy="0.527" lcSigma="0.980" lcSpeedGainRight="2.496" lcStrategic="99.000" lcSublane="0.375" maxSpeed="16.112" maxSpeedLat="3.500" sigma="0.814" tau="2.301" vClass="passenger"/>
		<vType accel="3.678" carFollowModel="EIDM" decel="3.062" id="car32" lcAssertive="1.311" lcCooperative="0.438" lcKeepRight="0.000" lcLookaheadLeft="14.010" lcOvertakeRight="0.000" lcPushy="0.527" lcSigma="0.980" lcSpeedGainRight="2.496" lcStrategic="99.000" lcSublane="0.375" maxSpeed="15.143" maxSpeedLat="3.500" sigma="0.814" tau="0.721" vClass="passenger"/>
		<vType accel="3.678" carFollowModel="EIDM" decel="3.062" id="car33" lcAssertive="1.311" lcCooperative="0.438" lcKeepRight="0.000" lcLookaheadLeft="14.010" lcOvertakeRight="0.000" lcPushy="0.527" lcSigma="0.980" lcSpeedGainRight="2.496" lcStrategic="99.000" lcSublane="0.375" maxSpeed="11.574" maxSpeedLat="3.500" sigma="0.814" tau="3.526" vClass="passenger"/>
		<vType accel="3.678" carFollowModel="EIDM" decel="3.062" id="car34" lcAssertive="1.311" lcCooperative="0.438" lcKeepRight="0.000" lcLookaheadLeft="14.010" lcOvertakeRight="0.000" lcPushy="0.527" lcSigma="0.980" lcSpeedGainRight="2.496" lcStrategic="99.000" lcSublane="0.375" maxSpeed="28.465" maxSpeedLat="3.500" sigma="0.814" tau="4.874" vClass="passenger"/>
		<vType accel="3.678" carFollowModel="EIDM" decel="3.062" id="car35" lcAssertive="1.311" lcCooperative="0.438" lcKeepRight="0.000" lcLookaheadLeft="14.010" lcOvertakeRight="0.000" lcPushy="0.527" lcSigma="0.980" lcSpeedGainRight="2.496" lcStrategic="99.000" lcSublane="0.375" maxSpeed="12.950" maxSpeedLat="3.500" sigma="0.814" tau="1.494" vClass="passenger"/>
		<vType accel="3.678" carFollowModel="EIDM" decel="3.062" id="car36" lcAssertive="1.311" lcCooperative="0.438" lcKeepRight="0.000" lcLookaheadLeft="14.010" lcOvertakeRight="0.000" lcPushy="0.527" lcSigma="0.980" lcSpeedGainRight="2.496" lcStrategic="99.000" lcSublane="0.375" maxSpeed="21.494" maxSpeedLat="3.500" sigma="0.814" tau="3.852" vClass="passenger"/>
		<vType accel="3.678" carFollowModel="EIDM" decel="3.062" id="car37" lcAssertive="1.311" lcCooperative="0.438" lcKeepRight="0.000" lcLookaheadLeft="14.010" lcOvertakeRight="0.000" lcPushy="0.527" lcSigma="0.980" lcSpeedGainRight="2.496" lcStrategic="99.000" lcSublane="0.375" maxSpeed="19.680" maxSpeedLat="3.500" sigma="0.814" tau="2.809" vClass="passenger"/>
		<vType accel="3.678" carFollowModel="EIDM" decel="3.062" id="car38" lcAssertive="1.311" lcCooperative="0.438" lcKeepRight="0.000" lcLookaheadLeft="14.010" lcOvertakeRight="0.000" lcPushy="0.527" lcSigma="0.980" lcSpeedGainRight="2.496" lcStrategic="99.000" lcSublane="0.375" maxSpeed="26.820" maxSpeedLat="3.500" sigma="0.814" tau="0.453" vClass="passenger"/>
		<vType accel="3.678" carFollowModel="EIDM" decel="3.062" id="car39" lcAssertive="1.311" lcCooperative="0.438" lcKeepRight="0.000" lcLookaheadLeft="14.010" lcOvertakeRight="0.000" lcPushy="0.527" lcSigma="0.980" lcSpeedGainRight="2.496" lcStrategic="99.000" lcSublane="0.375" maxSpeed="9.379" maxSpeedLat="3.500" sigma="0.814" tau="0.975" vClass="passenger"/>
		<vType accel="3.678" carFollowModel="EIDM" decel="3.062" id="car40" lcAssertive="1.311" lcCooperative="0.438" lcKeepRight="0.000" lcLookaheadLeft="14.010" lcOvertakeRight="0.000" lcPushy="0.527" lcSigma="0.980" lcSpeedGainRight="2.496" lcStrategic="99.000" lcSublane="0.375" maxSpeed="28.387" maxSpeedLat="3.500" sigma="0.814" tau="4.118" vClass="passenger"/>
		<vType accel="3.678" carFollowModel="EIDM" decel="3.062" id="car41" lcAssertive="1.311" lcCooperative="0.438" lcKeepRight="0.000" lcLookaheadLeft="14.010" lcOvertakeRight="0.000" lcPushy="0.527" lcSigma="0.980" lcSpeedGainRight="2.496" lcStrategic="99.000" lcSublane="0.375" maxSpeed="17.219" maxSpeedLat="3.500" sigma="0.814" tau="2.894" vClass="passenger"/>
		<vType accel="3.678" carFollowModel="EIDM" decel="3.062" id="car42" lcAssertive="1.311" lcCooperative="0.438" lcKeepRight="0.000" lcLookaheadLeft="14.010" lcOvertakeRight="0.000" lcPushy="0.527" lcSigma="0.980" lcSpeedGainRight="2.496" lcStrategic="99.000" lcSublane="0.375" maxSpeed="9.886" maxSpeedLat="3.500" sigma="0.814" tau="0.927" vClass="passenger"/>
		<vType accel="3.678" carFollowModel="EIDM" decel="3.062" id="car43" lcAssertive="1.311" lcCooperative="0.438" lcKeepRight="0.000" lcLookaheadLeft="14.010" lcOvertakeRight="0.000" lcPushy="0.527" lcSigma="0.980" lcSpeedGainRight="2.496" lcStrategic="99.000" lcSublane="0.375" maxSpeed="8.612" maxSpeedLat="3.500" sigma="0.814" tau="4.461" vClass="passenger"/>
		<vType accel="3.678" carFollowModel="EIDM" decel="3.062" id="car44" lcAssertive="1.311" lcCooperative="0.438" lcKeepRight="0.000" lcLookaheadLeft="14.010" lcOvertakeRight="0.000" lcPushy="0.527" lcSigma="0.980" lcSpeedGainRight="2.496" lcStrategic="99.000" lcSublane="0.375" maxSpeed="16.931" maxSpeedLat="3.500" sigma="0.814" tau="3.563" vClass="passenger"/>
		<vType accel="3.678" carFollowModel="EIDM" decel="3.062" id="car45" lcAssertive="1.311" lcCooperative="0.438" lcKeepRight="0.000" lcLookaheadLeft="14.010" lcOvertakeRight="0.000" lcPushy="0.527" lcSigma="0.980" lcSpeedGainRight="2.496" lcStrategic="99.000" lcSublane="0.375" maxSpeed="25.142" maxSpeedLat="3.500" sigma="0.814" tau="3.705" vClass="passenger"/>
		<vType accel="3.678" carFollowModel="EIDM" decel="3.062" id="car46" lcAssertive="1.311" lcCooperative="0.438" lcKeepRight="0.000" lcLookaheadLeft="14.010" lcOvertakeRight="0.000" lcPushy="0.527" lcSigma="0.980" lcSpeedGainRight="2.496" lcStrategic="99.000" lcSublane="0.375" maxSpeed="6.208" maxSpeedLat="3.500" sigma="0.814" tau="2.690" vClass="passenger"/>
		<vType accel="3.678" carFollowModel="EIDM" decel="3.062" id="car47" lcAssertive="1.311" lcCooperative="0.438" lcKeepRight="0.000" lcLookaheadLeft="14.010" lcOvertakeRight="0.000" lcPushy="0.527" lcSigma="0.980" lcSpeedGainRight="2.496" lcStrategic="99.000" lcSublane="0.375" maxSpeed="23.644" maxSpeedLat="3.500" sigma="0.814" tau="2.560" vClass="passenger"/>
		<vType accel="3.678" carFollowModel="EIDM" decel="3.062" id="car48" lcAssertive="1.311" lcCooperative="0.438" lcKeepRight="0.000" lcLookaheadLeft="14.010" lcOvertakeRight="0.000" lcPushy="0.527" lcSigma="0.980" lcSpeedGainRight="2.496" lcStrategic="99.000" lcSublane="0.375" maxSpeed="28.801" maxSpeedLat="3.500" sigma="0.814" tau="1.018" vClass="passenger"/>
		<vType accel="3.678" carFollowModel="EIDM" decel="3.062" id="car49" lcAssertive="1.311" lcCooperative="0.438" lcKeepRight="0.000" lcLookaheadLeft="14.010" lcOvertakeRight="0.000" lcPushy="0.527" lcSigma="0.980" lcSpeedGainRight="2.496" lcStrategic="99.000" lcSublane="0.375" maxSpeed="21.157" maxSpeedLat="3.500" sigma="0.814" tau="3.328" vClass="passenger"/>
		<vType accel="3.678" carFollowModel="EIDM" decel="3.062" id="car50" lcAssertive="1.311" lcCooperative="0.438" lcKeepRight="0.000" lcLookaheadLeft="14.010" lcOvertakeRight="0.000" lcPushy="0.527" lcSigma="0.980" lcSpeedGainRight="2.496" lcStrategic="99.000" lcSublane="0.375" maxSpeed="12.662" maxSpeedLat="3.500" sigma="0.814" tau="4.253" vClass="passenger"/>
		<vType accel="3.678" carFollowModel="EIDM" decel="3.062" id="car51" lcAssertive="1.311" lcCooperative="0.438" lcKeepRight="0.000" lcLookaheadLeft="14.010" lcOvertakeRight="0.000" lcPushy="0.527" lcSigma="0.980" lcSpeedGainRight="2.496" lcStrategic="99.000" lcSublane="0.375" maxSpeed="16.590" maxSpeedLat="3.500" sigma="0.814" tau="3.443" vClass="passenger"/>
		<vType accel="3.678" carFollowModel="EIDM" decel="3.062" id="car52" lcAssertive="1.311" lcCooperative="0.438" lcKeepRight="0.000" lcLookaheadLeft="14.010" lcOvertakeRight="0.000" lcPushy="0.527" lcSigma="0.980" lcSpeedGainRight="2.496" lcStrategic="99.000" lcSublane="0.375" maxSpeed="19.333" maxSpeedLat="3.500" sigma="0.814" tau="3.656" vClass="passenger"/>
		<vType accel="3.678" carFollowModel="EIDM" decel="3.062" id="car53" lcAssertive="1.311" lcCooperative="0.438" lcKeepRight="0.000" lcLookaheadLeft="14.010" lcOvertakeRight="0.000" lcPushy="0.527" lcSigma="0.980" lcSpeedGainRight="2.496" lcStrategic="99.000" lcSublane="0.375" maxSpeed="26.140" maxSpeedLat="3.500" sigma="0.814" tau="1.314" vClass="passenger"/>
		<vType accel="3.678" carFollowModel="EIDM" decel="3.062" id="car54" lcAssertive="1.311" lcCooperative="0.438" lcKeepRight="0.000" lcLookaheadLeft="14.010" lcOvertakeRight="0.000" lcPushy="0.527" lcSigma="0.980" lcSpeedGainRight="2.496" lcStrategic="99.000" lcSublane="0.375" maxSpeed="11.186" maxSpeedLat="3.500" sigma="0.814" tau="4.154" vClass="passenger"/>
		<vType accel="3.678" carFollowModel="EIDM" decel="3.062" id="car55" lcAssertive="1.311" lcCooperative="0.438" lcKeepRight="0.000" lcLookaheadLeft="14.010" lcOvertakeRight="0.000" lcPushy="0.527" lcSigma="0.980" lcSpeedGainRight="2.496" lcStrategic="99.000" lcSublane="0.375" maxSpeed="26.002" maxSpeedLat="3.500" sigma="0.814" tau="2.169" vClass="passenger"/>
		<vType accel="3.678" carFollowModel="EIDM" decel="3.062" id="car56" lcAssertive="1.311" lcCooperative="0.438" lcKeepRight="0.000" lcLookaheadLeft="14.010" lcOvertakeRight="0.000" lcPushy="0.527" lcSigma="0.980" lcSpeedGainRight="2.496" lcStrategic="99.000" lcSublane="0.375" maxSpeed="18.887" maxSpeedLat="3.500" sigma="0.814" tau="1.910" vClass="passenger"/>
		<vType accel="3.678" carFollowModel="EIDM" decel="3.062" id="car57" lcAssertive="1.311" lcCooperative="0.438" lcKeepRight="0.000" lcLookaheadLeft="14.010" lcOvertakeRight="0.000" lcPushy="0.527" lcSigma="0.980" lcSpeedGainRight="2.496" lcStrategic="99.000" lcSublane="0.375" maxSpeed="7.315" maxSpeedLat="3.500" sigma="0.814" tau="2.700" vClass="passenger"/>
		<vType accel="3.678" carFollowModel="EIDM" decel="3.062" id="car58" lcAssertive="1.311" lcCooperative="0.438" lcKeepRight="0.000" lcLookaheadLeft="14.010" lcOvertakeRight="0.000" lcPushy="0.527" lcSigma="0.980" lcSpeedGainRight="2.496" lcStrategic="99.000" lcSublane="0.375" maxSpeed="28.571" maxSpeedLat="3.500" sigma="0.814" tau="4.120" vClass="passenger"/>
		<vType accel="3.678" carFollowModel="EIDM" decel="3.062" id="car59" lcAssertive="1.311" lcCooperative="0.438" lcKeepRight="0.000" lcLookaheadLeft="14.010" lcOvertakeRight="0.000" lcPushy="0.527" lcSigma="0.980" lcSpeedGainRight="2.496" lcStrategic="99.000" lcSublane="0.375" maxSpeed="23.933" maxSpeedLat="3.500" sigma="0.814" tau="3.619" vClass="passenger"/>
		<vType accel="3.678" carFollowModel="EIDM" decel="3.062" id="car60" lcAssertive="1.311" lcCooperative="0.438" lcKeepRight="0.000" lcLookaheadLeft="14.010" lcOvertakeRight="0.000" lcPushy="0.527" lcSigma="0.980" lcSpeedGainRight="2.496" lcStrategic="99.000" lcSublane="0.375" maxSpeed="6.848" maxSpeedLat="3.500" sigma="0.814" tau="4.091" vClass="passenger"/>
		<vType accel="3.678" carFollowModel="EIDM" decel="3.062" id="car61" lcAssertive="1.311" lcCooperative="0.438" lcKeepRight="0.000" lcLookaheadLeft="14.010" lcOvertakeRight="0.000" lcPushy="0.527" lcSigma="0.980" lcSpeedGainRight="2.496" lcStrategic="99.000" lcSublane="0.375" maxSpeed="27.353" maxSpeedLat="3.500" sigma="0.814" tau="2.064" vClass="passenger"/>
		<vType accel="3.678" carFollowModel="EIDM" decel="3.062" id="car62" lcAssertive="1.311" lcCooperative="0.438" lcKeepRight="0.000" lcLookaheadLeft="14.010" lcOvertakeRight="0.000" lcPushy="0.527" lcSigma="0.980" lcSpeedGainRight="2.496" lcStrategic="99.000" lcSublane="0.375" maxSpeed="15.230" maxSpeedLat="3.500" sigma="0.814" tau="4.541" vClass="passenger"/>
		<vType accel="3.678" carFollowModel="EIDM" decel="3.062" id="car63" lcAssertive="1.311" lcCooperative="0.438" lcKeepRight="0.000" lcLookaheadLeft="14.010" lcOvertakeRight="0.000" lcPushy="0.527" lcSigma="0.980" lcSpeedGainRight="2.496" lcStrategic="99.000" lcSublane="0.375" maxSpeed="12.597" maxSpeedLat="3.500" sigma="0.814" tau="1.512" vClass="passenger"/>
		<vType accel="3.678" carFollowModel="EIDM" decel="3.062" id="car64" lcAssertive="1.311" lcCooperative="0.438" lcKeepRight="0.000" lcLookaheadLeft="14.010" lcOvertakeRight="0.000" lcPushy="0.527" lcSigma="0.980" lcSpeedGainRight="2.496" lcStrategic="99.000" lcSublane="0.375" maxSpeed="12.747" maxSpeedLat="3.500" sigma="0.814" tau="3.855" vClass="passenger"/>
		<vType accel="3.678" carFollowModel="EIDM" decel="3.062" id="car65" lcAssertive="1.311" lcCooperative="0.438" lcKeepRight="0.000" lcLookaheadLeft="14.010" lcOvertakeRight="0.000" lcPushy="0.527" lcSigma="0.980" lcSpeedGainRight="2.496" lcStrategic="99.000" lcSublane="0.375" maxSpeed="28.833" maxSpeedLat="3.500" sigma="0.814" tau="3.472" vClass="passenger"/>
		<vType accel="3.678" carFollowModel="EIDM" decel="3.062" id="car66" lcAssertive="1.311" lcCooperative="0.438" lcKeepRight="0.000" lcLookaheadLeft="14.010" lcOvertakeRight="0.000" lcPushy="0.527" lcSigma="0.980" lcSpeedGainRight="2.496" lcStrategic="99.000" lcSublane="0.375" maxSpeed="13.054" maxSpeedLat="3.500" sigma="0.814" tau="3.844" vClass="passenger"/>
		<vType accel="3.678" carFollowModel="EIDM" decel="3.062" id="car67" lcAssertive="1.311" lcCooperative="0.438" lcKeepRight="0.000" lcLookaheadLeft="14.010" lcOvertakeRight="0.000" lcPushy="0.527" lcSigma="0.980" lcSpeedGainRight="2.496" lcStrategic="99.000" lcSublane="0.375" maxSpeed="18.596" maxSpeedLat="3.500" sigma="0.814" tau="1.152" vClass="passenger"/>
		<vType accel="3.678" carFollowModel="EIDM" decel="3.062" id="car68" lcAssertive="1.311" lcCooperative="0.438" lcKeepRight="0.000" lcLookaheadLeft="14.010" lcOvertakeRight="0.000" lcPushy="0.527" lcSigma="0.980" lcSpeedGainRight="2.496" lcStrategic="99.000" lcSublane="0.375" maxSpeed="23.329" maxSpeedLat="3.500" sigma="0.814" tau="2.916" vClass="passenger"/>
		<vType accel="3.678" carFollowModel="EIDM" decel="3.062" id="car69" lcAssertive="1.311" lcCooperative="0.438" lcKeepRight="0.000" lcLookaheadLeft="14.010" lcOvertakeRight="0.000" lcPushy="0.527" lcSigma="0.980" lcSpeedGainRight="2.496" lcStrategic="99.000" lcSublane="0.375" maxSpeed="13.839" maxSpeedLat="3.500" sigma="0.814" tau="1.478" vClass="passenger"/>
		<vType accel="3.678" carFollowModel="EIDM" decel="3.062" id="car70" lcAssertive="1.311" lcCooperative="0.438" lcKeepRight="0.000" lcLookaheadLeft="14.010" lcOvertakeRight="0.000" lcPushy="0.527" lcSigma="0.980" lcSpeedGainRight="2.496" lcStrategic="99.000" lcSublane="0.375" maxSpeed="22.817" maxSpeedLat="3.500" sigma="0.814" tau="4.594" vClass="passenger"/>
		<vType accel="3.678" carFollowModel="EIDM" decel="3.062" id="car71" lcAssertive="1.311" lcCooperative="0.438" lcKeepRight="0.000" lcLookaheadLeft="14.010" lcOvertakeRight="0.000" lcPushy="0.527" lcSigma="0.980" lcSpeedGainRight="2.496" lcStrategic="99.000" lcSublane="0.375" maxSpeed="23.690" maxSpeedLat="3.500" sigma="0.814" tau="3.674" vClass="passenger"/>
		<vType accel="3.678" carFollowModel="EIDM" decel="3.062" id="car72" lcAssertive="1.311" lcCooperative="0.438" lcKeepRight="0.000" lcLookaheadLeft="14.010" lcOvertakeRight="0.000" lcPushy="0.527" lcSigma="0.980" lcSpeedGainRight="2.496" lcStrategic="99.000" lcSublane="0.375" maxSpeed="10.267" maxSpeedLat="3.500" sigma="0.814" tau="4.101" vClass="passenger"/>
		<vType accel="3.678" carFollowModel="EIDM" decel="3.062" id="car73" lcAssertive="1.311" lcCooperative="0.438" lcKeepRight="0.000" lcLookaheadLeft="14.010" lcOvertakeRight="0.000" lcPushy="0.527" lcSigma="0.980" lcSpeedGainRight="2.496" lcStrategic="99.000" lcSublane="0.375" maxSpeed="22.862" maxSpeedLat="3.500" sigma="0.814" tau="3.829" vClass="passenger"/>
		<vType accel="3.678" carFollowModel="EIDM" decel="3.062" id="car74" lcAssertive="1.311" lcCooperative="0.438" lcKeepRight="0.000" lcLookaheadLeft="14.010" lcOvertakeRight="0.000" lcPushy="0.527" lcSigma="0.980" lcSpeedGainRight="2.496" lcStrategic="99.000" lcSublane="0.375" maxSpeed="18.598" maxSpeedLat="3.500" sigma="0.814" tau="4.449" vClass="passenger"/>
		<vType accel="3.678" carFollowModel="EIDM" decel="3.062" id="car75" lcAssertive="1.311" lcCooperative="0.438" lcKeepRight="0.000" lcLookaheadLeft="14.010" lcOvertakeRight="0.000" lcPushy="0.527" lcSigma="0.980" lcSpeedGainRight="2.496" lcStrategic="99.000" lcSublane="0.375" maxSpeed="22.481" maxSpeedLat="3.500" sigma="0.814" tau="4.350" vClass="passenger"/>
		<vType accel="3.678" carFollowModel="EIDM" decel="3.062" id="car76" lcAssertive="1.311" lcCooperative="0.438" lcKeepRight="0.000" lcLookaheadLeft="14.010" lcOvertakeRight="0.000" lcPushy="0.527" lcSigma="0.980" lcSpeedGainRight="2.496" lcStrategic="99.000" lcSublane="0.375" maxSpeed="14.846" maxSpeedLat="3.500" sigma="0.814" tau="4.790" vClass="passenger"/>
		<vType accel="3.678" carFollowModel="EIDM" decel="3.062" id="car77" lcAssertive="1.311" lcCooperative="0.438" lcKeepRight="0.000" lcLookaheadLeft="14.010" lcOvertakeRight="0.000" lcPushy="0.527" lcSigma="0.980" lcSpeedGainRight="2.496" lcStrategic="99.000" lcSublane="0.375" maxSpeed="9.556" maxSpeedLat="3.500" sigma="0.814" tau="2.261" vClass="passenger"/>
		<vType accel="3.678" carFollowModel="EIDM" decel="3.062" id="car78" lcAssertive="1.311" lcCooperative="0.438" lcKeepRight="0.000" lcLookaheadLeft="14.010" lcOvertakeRight="0.000" lcPushy="0.527" lcSigma="0.980" lcSpeedGainRight="2.496" lcStrategic="99.000" lcSublane="0.375" maxSpeed="8.050" maxSpeedLat="3.500" sigma="0.814" tau="0.871" vClass="passenger"/>
		<vType accel="3.678" carFollowModel="EIDM" decel="3.062" id="car79" lcAssertive="1.311" lcCooperative="0.438" lcKeepRight="0.000" lcLookaheadLeft="14.010" lcOvertakeRight="0.000" lcPushy="0.527" lcSigma="0.980" lcSpeedGainRight="2.496" lcStrategic="99.000" lcSublane="0.375" maxSpeed="20.096" maxSpeedLat="3.500" sigma="0.814" tau="1.481" vClass="passenger"/>
		<vType accel="3.678" carFollowModel="EIDM" decel="3.062" id="car80" lcAssertive="1.311" lcCooperative="0.438" lcKeepRight="0.000" lcLookaheadLeft="14.010" lcOvertakeRight="0.000" lcPushy="0.527" lcSigma="0.980" lcSpeedGainRight="2.496" lcStrategic="99.000" lcSublane="0.375" maxSpeed="19.681" maxSpeedLat="3.500" sigma="0.814" tau="4.722" vClass="passenger"/>
		<vType accel="3.678" carFollowModel="EIDM" decel="3.062" id="car81" lcAssertive="1.311" lcCooperative="0.438" lcKeepRight="0.000" lcLookaheadLeft="14.010" lcOvertakeRight="0.000" lcPushy="0.527" lcSigma="0.980" lcSpeedGainRight="2.496" lcStrategic="99.000" lcSublane="0.375" maxSpeed="28.086" maxSpeedLat="3.500" sigma="0.814" tau="4.703" vClass="passenger"/>